<?xml version="1.0" encoding="UTF-8"?>

<!-- generated on 2023-04-09 22:25:10 by Eclipse SUMO duarouter Version 1.16.0
<configuration xmlns:xsi="http://www.w3.org/2001/XMLSchema-instance" xsi:noNamespaceSchemaLocation="http://sumo.dlr.de/xsd/duarouterConfiguration.xsd">

    <input>
        <net-file value="NetworkFile.net.xml"/>
        <route-files value="route1.rou.xml"/>
    </input>

    <output>
        <output-file value="route1.rou.xml.rerouted.rou.xml"/>
    </output>

    <processing>
        <routing-threads value="1"/>
        <routing-algorithm value="astar"/>
    </processing>

    <report>
        <aggregate-warnings value="1"/>
        <no-step-log value="true"/>
    </report>

</configuration>
-->

<routes xmlns:xsi="http://www.w3.org/2001/XMLSchema-instance" xsi:noNamespaceSchemaLocation="http://sumo.dlr.de/xsd/routes_file.xsd">
    <vehicle id="1" depart="3.20">
        <route edges="1110162265#2 378597200#3 378597200#4"/>
    </vehicle>
    <vehicle id="2" depart="6.00">
        <route edges="171888545#4 1110162267#0 1110162267#1"/>
    </vehicle>
    <vehicle id="3" depart="10.80">
        <route edges="171888545#2 171888545#3 171888545#4 1110162267#0 1110162267#1 458681912#1 458681912#2"/>
    </vehicle>
    <vehicle id="5" depart="11.60">
        <route edges="171888545#4 777690253"/>
    </vehicle>
    <vehicle id="7" depart="12.60">
        <route edges="1110162265#1 1110162265#2 1110162267#0 1110162267#1"/>
    </vehicle>
    <vehicle id="8" depart="13.20">
        <route edges="1110162265#2"/>
    </vehicle>
    <vehicle id="9" depart="17.20">
        <route edges="1110162265#1 1110162265#2"/>
    </vehicle>
    <vehicle id="10" depart="17.20">
        <route edges="171888545#2 171888545#3 171888545#4 378597200#3 378597200#4"/>
    </vehicle>
    <vehicle id="12" depart="24.00">
        <route edges="1110162267#1 458681912#1 458681912#2"/>
    </vehicle>
    <vehicle id="13" depart="27.80">
        <route edges="1110162267#1 458681912#1 458681912#2"/>
    </vehicle>
    <vehicle id="17" depart="47.60">
        <route edges="458681912#1 458681912#2"/>
    </vehicle>
    <vehicle id="18" depart="49.80">
        <route edges="171888545#2 171888545#3"/>
    </vehicle>
    <vehicle id="19" depart="54.00">
        <route edges="171888545#4 777690253"/>
    </vehicle>
    <vehicle id="23" depart="66.80">
        <route edges="1110162265#2 1110162267#0 1110162267#1 458681912#1 458681912#2"/>
    </vehicle>
    <vehicle id="25" depart="68.20">
        <route edges="1110162265#2 378597200#3 378597200#4"/>
    </vehicle>
    <vehicle id="29" depart="75.40">
        <route edges="1110162267#1 458681912#1"/>
    </vehicle>
    <vehicle id="30" depart="75.40">
        <route edges="171888545#3 171888545#4 378597200#3 378597200#4"/>
    </vehicle>
    <vehicle id="31" depart="80.20">
        <route edges="171888545#4 1110162267#0 1110162267#1 458681912#1 458681912#2"/>
    </vehicle>
    <vehicle id="32" depart="85.00">
        <route edges="171888545#2 171888545#3"/>
    </vehicle>
    <vehicle id="34" depart="89.60">
        <route edges="1110162265#2"/>
    </vehicle>
    <vehicle id="35" depart="90.00">
        <route edges="1110162265#1 1110162265#2 1110162267#0 1110162267#1 458681912#1 458681912#2"/>
    </vehicle>
    <vehicle id="38" depart="96.00">
        <route edges="171888545#3 171888545#4"/>
    </vehicle>
    <vehicle id="41" depart="107.00">
        <route edges="171888545#2 171888545#3 171888545#4 777690253"/>
    </vehicle>
    <vehicle id="42" depart="112.00">
        <route edges="171888545#3 171888545#4 777690253"/>
    </vehicle>
    <vehicle id="43" depart="116.80">
        <route edges="1110162265#2 378597200#3 378597200#4"/>
    </vehicle>
    <vehicle id="48" depart="137.00">
        <route edges="171888545#2 171888545#3 171888545#4"/>
    </vehicle>
    <vehicle id="50" depart="140.00">
        <route edges="1110162265#2 777690253"/>
    </vehicle>
    <vehicle id="51" depart="143.80">
        <route edges="1110162267#0 1110162267#1"/>
    </vehicle>
    <vehicle id="57" depart="152.80">
        <route edges="1110162265#1 1110162265#2 1110162267#0 1110162267#1"/>
    </vehicle>
    <vehicle id="59" depart="155.40">
        <route edges="171888545#2 171888545#3 171888545#4 1110162267#0 1110162267#1 458681912#1"/>
    </vehicle>
    <vehicle id="60" depart="157.60">
        <route edges="777690254 378597200#3 378597200#4"/>
    </vehicle>
    <vehicle id="62" depart="162.20">
        <route edges="171888545#2 171888545#3 171888545#4 1110162267#0 1110162267#1"/>
    </vehicle>
    <vehicle id="64" depart="167.60">
        <route edges="1110162265#2 378597200#3 378597200#4"/>
    </vehicle>
    <vehicle id="65" depart="171.80">
        <route edges="171888545#4 1110162267#0 1110162267#1"/>
    </vehicle>
    <vehicle id="66" depart="174.00">
        <route edges="1110162265#1 1110162265#2"/>
    </vehicle>
    <vehicle id="67" depart="178.60">
        <route edges="171888545#3"/>
    </vehicle>
    <vehicle id="68" depart="179.20">
        <route edges="777690254 777690253"/>
    </vehicle>
    <vehicle id="69" depart="183.40">
        <route edges="171888545#3 171888545#4 1110162267#0 1110162267#1 458681912#1"/>
    </vehicle>
    <vehicle id="70" depart="186.00">
        <route edges="1110162265#2"/>
    </vehicle>
    <vehicle id="73" depart="190.00">
        <route edges="458681912#1"/>
    </vehicle>
    <vehicle id="74" depart="193.60">
        <route edges="777690254 1110162267#0"/>
    </vehicle>
    <vehicle id="77" depart="200.00">
        <route edges="1110162265#2 1110162267#0 1110162267#1 458681912#1 458681912#2"/>
    </vehicle>
    <vehicle id="80" depart="218.80">
        <route edges="171888545#4 1110162267#0 1110162267#1"/>
    </vehicle>
    <vehicle id="82" depart="232.60">
        <route edges="171888545#3 171888545#4 1110162267#0"/>
    </vehicle>
    <vehicle id="83" depart="234.60">
        <route edges="171888545#3 171888545#4 777690253"/>
    </vehicle>
    <vehicle id="84" depart="234.80">
        <route edges="171888545#4 1110162267#0 1110162267#1 458681912#1"/>
    </vehicle>
    <vehicle id="85" depart="235.20">
        <route edges="1110162265#2 777690253"/>
    </vehicle>
    <vehicle id="86" depart="238.80">
        <route edges="171888545#4"/>
    </vehicle>
    <vehicle id="89" depart="249.40">
        <route edges="1110162265#2 378597200#3"/>
    </vehicle>
    <vehicle id="90" depart="253.80">
        <route edges="171888545#3 171888545#4 1110162267#0 1110162267#1"/>
    </vehicle>
    <vehicle id="91" depart="255.60">
        <route edges="1110162265#2 1110162267#0"/>
    </vehicle>
    <vehicle id="92" depart="256.80">
        <route edges="1110162265#1 1110162265#2 1110162267#0"/>
    </vehicle>
    <vehicle id="93" depart="264.60">
        <route edges="1110162265#1 1110162265#2 378597200#3"/>
    </vehicle>
    <vehicle id="94" depart="265.80">
        <route edges="1110162265#2 777690253"/>
    </vehicle>
    <vehicle id="96" depart="270.40">
        <route edges="1110162265#1 1110162265#2 1110162267#0 1110162267#1 458681912#1 458681912#2"/>
    </vehicle>
    <vehicle id="97" depart="270.40">
        <route edges="777690254 1110162267#0 1110162267#1 458681912#1 458681912#2"/>
    </vehicle>
    <vehicle id="98" depart="272.20">
        <route edges="1110162265#2 1110162267#0 1110162267#1 458681912#1 458681912#2"/>
    </vehicle>
    <vehicle id="101" depart="295.60">
        <route edges="1110162265#2 777690253"/>
    </vehicle>
    <vehicle id="102" depart="295.80">
        <route edges="171888545#4"/>
    </vehicle>
    <vehicle id="103" depart="296.40">
        <route edges="1110162265#1 1110162265#2 1110162267#0"/>
    </vehicle>
    <vehicle id="104" depart="297.60">
        <route edges="777690254 378597200#3 378597200#4"/>
    </vehicle>
    <vehicle id="106" depart="303.00">
        <route edges="171888545#2 171888545#3 171888545#4 777690253"/>
    </vehicle>
    <vehicle id="107" depart="309.00">
        <route edges="171888545#3 171888545#4"/>
    </vehicle>
    <vehicle id="108" depart="310.00">
        <route edges="1110162265#2"/>
    </vehicle>
    <vehicle id="110" depart="326.40">
        <route edges="171888545#4 378597200#3 378597200#4"/>
    </vehicle>
    <vehicle id="111" depart="330.80">
        <route edges="1110162267#1"/>
    </vehicle>
    <vehicle id="112" depart="331.60">
        <route edges="171888545#3 171888545#4 777690253"/>
    </vehicle>
    <vehicle id="113" depart="335.00">
        <route edges="1110162265#2"/>
    </vehicle>
    <vehicle id="114" depart="340.60">
        <route edges="777690254 1110162267#0"/>
    </vehicle>
    <vehicle id="115" depart="341.00">
        <route edges="171888545#4 378597200#3"/>
    </vehicle>
    <vehicle id="116" depart="354.80">
        <route edges="171888545#2 171888545#3 171888545#4 378597200#3"/>
    </vehicle>
    <vehicle id="118" depart="366.80">
        <route edges="171888545#4 1110162267#0"/>
    </vehicle>
    <vehicle id="119" depart="372.00">
        <route edges="171888545#3 171888545#4 1110162267#0 1110162267#1 458681912#1 458681912#2"/>
    </vehicle>
    <vehicle id="123" depart="382.20">
        <route edges="1110162265#1 1110162265#2 378597200#3"/>
    </vehicle>
    <vehicle id="124" depart="384.00">
        <route edges="171888545#3 171888545#4"/>
    </vehicle>
    <vehicle id="127" depart="394.40">
        <route edges="171888545#3"/>
    </vehicle>
    <vehicle id="128" depart="394.80">
        <route edges="171888545#4 1110162267#0 1110162267#1 458681912#1 458681912#2"/>
    </vehicle>
    <vehicle id="132" depart="401.40">
        <route edges="1110162265#2 378597200#3 378597200#4"/>
    </vehicle>
    <vehicle id="133" depart="409.60">
        <route edges="1110162265#2 1110162267#0"/>
    </vehicle>
    <vehicle id="134" depart="412.40">
        <route edges="1110162265#1 1110162265#2"/>
    </vehicle>
    <vehicle id="138" depart="425.00">
        <route edges="1110162265#2 378597200#3 378597200#4"/>
    </vehicle>
    <vehicle id="140" depart="426.00">
        <route edges="458681912#1 458681912#2"/>
    </vehicle>
    <vehicle id="142" depart="426.80">
        <route edges="171888545#2 171888545#3 171888545#4 1110162267#0"/>
    </vehicle>
    <vehicle id="144" depart="427.20">
        <route edges="1110162265#1 1110162265#2 378597200#3"/>
    </vehicle>
    <vehicle id="145" depart="428.20">
        <route edges="171888545#3 171888545#4 777690253"/>
    </vehicle>
    <vehicle id="148" depart="437.40">
        <route edges="171888545#2 171888545#3 171888545#4 777690253"/>
    </vehicle>
    <vehicle id="149" depart="440.40">
        <route edges="777690254 378597200#3"/>
    </vehicle>
    <vehicle id="150" depart="450.40">
        <route edges="171888545#2 171888545#3 171888545#4 1110162267#0 1110162267#1"/>
    </vehicle>
    <vehicle id="151" depart="454.60">
        <route edges="171888545#3 171888545#4 1110162267#0 1110162267#1"/>
    </vehicle>
    <vehicle id="154" depart="465.00">
        <route edges="777690254 777690253"/>
    </vehicle>
    <vehicle id="155" depart="466.60">
        <route edges="171888545#3 171888545#4"/>
    </vehicle>
    <vehicle id="156" depart="467.40">
        <route edges="171888545#3"/>
    </vehicle>
    <vehicle id="157" depart="475.00">
        <route edges="1110162265#2 1110162267#0 1110162267#1 458681912#1"/>
    </vehicle>
    <vehicle id="158" depart="496.00">
        <route edges="171888545#3 171888545#4 777690253"/>
    </vehicle>
    <vehicle id="159" depart="503.20">
        <route edges="1110162265#1 1110162265#2 1110162267#0"/>
    </vehicle>
    <vehicle id="161" depart="507.80">
        <route edges="171888545#3"/>
    </vehicle>
    <vehicle id="162" depart="523.00">
        <route edges="1110162265#2"/>
    </vehicle>
    <vehicle id="163" depart="528.40">
        <route edges="171888545#4 1110162267#0 1110162267#1 458681912#1"/>
    </vehicle>
    <vehicle id="164" depart="533.20">
        <route edges="1110162265#1 1110162265#2 378597200#3 378597200#4"/>
    </vehicle>
    <vehicle id="166" depart="538.20">
        <route edges="171888545#2 171888545#3 171888545#4 1110162267#0"/>
    </vehicle>
    <vehicle id="167" depart="542.00">
        <route edges="1110162265#2 777690253"/>
    </vehicle>
    <vehicle id="170" depart="544.60">
        <route edges="777690254 378597200#3 378597200#4"/>
    </vehicle>
    <vehicle id="173" depart="553.60">
        <route edges="171888545#3 171888545#4 378597200#3 378597200#4"/>
    </vehicle>
    <vehicle id="174" depart="562.00">
        <route edges="777690254 777690253"/>
    </vehicle>
    <vehicle id="175" depart="563.40">
        <route edges="171888545#4 378597200#3 378597200#4"/>
    </vehicle>
    <vehicle id="176" depart="564.80">
        <route edges="171888545#3 171888545#4 1110162267#0 1110162267#1"/>
    </vehicle>
    <vehicle id="177" depart="565.60">
        <route edges="171888545#3 171888545#4 1110162267#0 1110162267#1"/>
    </vehicle>
    <vehicle id="178" depart="565.80">
        <route edges="458681912#1"/>
    </vehicle>
    <vehicle id="179" depart="567.20">
        <route edges="171888545#3 171888545#4"/>
    </vehicle>
    <vehicle id="180" depart="573.00">
        <route edges="777690254 1110162267#0 1110162267#1 458681912#1"/>
    </vehicle>
    <vehicle id="182" depart="580.80">
        <route edges="777690254 378597200#3 378597200#4"/>
    </vehicle>
    <vehicle id="183" depart="581.20">
        <route edges="1110162265#1 1110162265#2 378597200#3 378597200#4"/>
    </vehicle>
    <vehicle id="184" depart="589.80">
        <route edges="171888545#3 171888545#4 1110162267#0 1110162267#1"/>
    </vehicle>
    <vehicle id="185" depart="592.40">
        <route edges="171888545#4 1110162267#0 1110162267#1"/>
    </vehicle>
    <vehicle id="186" depart="599.60">
        <route edges="171888545#3 171888545#4 378597200#3"/>
    </vehicle>
    <vehicle id="187" depart="604.20">
        <route edges="1110162267#1 458681912#1"/>
    </vehicle>
    <vehicle id="188" depart="609.60">
        <route edges="1110162265#1 1110162265#2 1110162267#0 1110162267#1 458681912#1 458681912#2"/>
    </vehicle>
    <vehicle id="189" depart="615.80">
        <route edges="1110162265#1 1110162265#2 777690253"/>
    </vehicle>
    <vehicle id="190" depart="615.80">
        <route edges="1110162265#2 1110162267#0 1110162267#1"/>
    </vehicle>
    <vehicle id="191" depart="616.00">
        <route edges="171888545#2 171888545#3 171888545#4 1110162267#0 1110162267#1 458681912#1 458681912#2"/>
    </vehicle>
    <vehicle id="192" depart="628.00">
        <route edges="777690254 1110162267#0 1110162267#1 458681912#1 458681912#2"/>
    </vehicle>
    <vehicle id="194" depart="633.60">
        <route edges="777690254 378597200#3 378597200#4"/>
    </vehicle>
    <vehicle id="197" depart="636.60">
        <route edges="171888545#2 171888545#3 171888545#4 378597200#3"/>
    </vehicle>
    <vehicle id="199" depart="640.20">
        <route edges="171888545#2 171888545#3 171888545#4 378597200#3 378597200#4"/>
    </vehicle>
    <vehicle id="200" depart="642.20">
        <route edges="458681912#1"/>
    </vehicle>
    <vehicle id="203" depart="654.40">
        <route edges="171888545#2 171888545#3 171888545#4"/>
    </vehicle>
    <vehicle id="204" depart="655.00">
        <route edges="378597200#3 378597200#4"/>
    </vehicle>
    <vehicle id="207" depart="662.80">
        <route edges="171888545#2 171888545#3 171888545#4 1110162267#0 1110162267#1"/>
    </vehicle>
    <vehicle id="208" depart="664.40">
        <route edges="1110162265#1 1110162265#2 378597200#3"/>
    </vehicle>
    <vehicle id="209" depart="664.60">
        <route edges="1110162265#1 1110162265#2"/>
    </vehicle>
    <vehicle id="211" depart="667.60">
        <route edges="777690254 1110162267#0 1110162267#1 458681912#1"/>
    </vehicle>
    <vehicle id="212" depart="669.60">
        <route edges="1110162265#2"/>
    </vehicle>
    <vehicle id="213" depart="671.00">
        <route edges="777690254 378597200#3 378597200#4"/>
    </vehicle>
    <vehicle id="214" depart="671.80">
        <route edges="1110162265#2 1110162267#0 1110162267#1 458681912#1"/>
    </vehicle>
    <vehicle id="216" depart="676.20">
        <route edges="1110162265#1 1110162265#2 378597200#3 378597200#4"/>
    </vehicle>
    <vehicle id="222" depart="692.40">
        <route edges="1110162265#2 1110162267#0"/>
    </vehicle>
    <vehicle id="223" depart="694.60">
        <route edges="171888545#2 171888545#3 171888545#4 1110162267#0 1110162267#1 458681912#1"/>
    </vehicle>
    <vehicle id="225" depart="698.00">
        <route edges="171888545#3 171888545#4 1110162267#0"/>
    </vehicle>
    <vehicle id="227" depart="707.60">
        <route edges="1110162265#1 1110162265#2 777690253"/>
    </vehicle>
    <vehicle id="229" depart="708.60">
        <route edges="1110162265#2 1110162267#0 1110162267#1 458681912#1 458681912#2"/>
    </vehicle>
    <vehicle id="231" depart="714.00">
        <route edges="171888545#2 171888545#3 171888545#4 1110162267#0"/>
    </vehicle>
    <vehicle id="232" depart="719.00">
        <route edges="1110162265#1 1110162265#2 1110162267#0 1110162267#1"/>
    </vehicle>
    <vehicle id="233" depart="719.20">
        <route edges="171888545#4 378597200#3"/>
    </vehicle>
    <vehicle id="235" depart="727.60">
        <route edges="1110162265#1 1110162265#2 378597200#3"/>
    </vehicle>
    <vehicle id="236" depart="727.80">
        <route edges="171888545#2 171888545#3"/>
    </vehicle>
    <vehicle id="238" depart="730.80">
        <route edges="1110162267#1 458681912#1 458681912#2"/>
    </vehicle>
    <vehicle id="240" depart="734.40">
        <route edges="1110162265#2"/>
    </vehicle>
    <vehicle id="241" depart="738.80">
        <route edges="1110162265#2 777690253"/>
    </vehicle>
    <vehicle id="242" depart="741.40">
        <route edges="171888545#4"/>
    </vehicle>
    <vehicle id="244" depart="754.80">
        <route edges="1110162265#1 1110162265#2 1110162267#0 1110162267#1 458681912#1"/>
    </vehicle>
    <vehicle id="245" depart="758.20">
        <route edges="777690254 1110162267#0 1110162267#1 458681912#1 458681912#2"/>
    </vehicle>
    <vehicle id="246" depart="760.20">
        <route edges="1110162267#0 1110162267#1"/>
    </vehicle>
    <vehicle id="250" depart="764.60">
        <route edges="171888545#3 171888545#4 378597200#3 378597200#4"/>
    </vehicle>
    <vehicle id="251" depart="768.40">
        <route edges="171888545#3 171888545#4"/>
    </vehicle>
    <vehicle id="252" depart="769.40">
        <route edges="171888545#2 171888545#3 171888545#4 1110162267#0 1110162267#1 458681912#1"/>
    </vehicle>
    <vehicle id="253" depart="778.20">
        <route edges="171888545#4 378597200#3"/>
    </vehicle>
    <vehicle id="254" depart="778.60">
        <route edges="171888545#4 1110162267#0 1110162267#1 458681912#1 458681912#2"/>
    </vehicle>
    <vehicle id="255" depart="778.80">
        <route edges="1110162265#2 1110162267#0 1110162267#1"/>
    </vehicle>
    <vehicle id="257" depart="798.20">
        <route edges="1110162265#2"/>
    </vehicle>
    <vehicle id="259" depart="805.20">
        <route edges="777690254 1110162267#0 1110162267#1 458681912#1"/>
    </vehicle>
    <vehicle id="261" depart="810.00">
        <route edges="171888545#4 777690253"/>
    </vehicle>
    <vehicle id="262" depart="811.40">
        <route edges="1110162265#2 1110162267#0 1110162267#1 458681912#1"/>
    </vehicle>
    <vehicle id="264" depart="813.40">
        <route edges="171888545#2 171888545#3 171888545#4 1110162267#0 1110162267#1 458681912#1 458681912#2"/>
    </vehicle>
    <vehicle id="265" depart="817.60">
        <route edges="1110162267#0 1110162267#1"/>
    </vehicle>
    <vehicle id="266" depart="828.00">
        <route edges="171888545#2 171888545#3"/>
    </vehicle>
    <vehicle id="267" depart="830.00">
        <route edges="171888545#4"/>
    </vehicle>
    <vehicle id="268" depart="836.80">
        <route edges="171888545#2 171888545#3 171888545#4"/>
    </vehicle>
    <vehicle id="269" depart="837.20">
        <route edges="777690254 1110162267#0"/>
    </vehicle>
    <vehicle id="272" depart="849.80">
        <route edges="171888545#4 1110162267#0 1110162267#1 458681912#1 458681912#2"/>
    </vehicle>
    <vehicle id="277" depart="862.40">
        <route edges="1110162267#1"/>
    </vehicle>
    <vehicle id="278" depart="863.20">
        <route edges="171888545#4 378597200#3 378597200#4"/>
    </vehicle>
    <vehicle id="282" depart="877.00">
        <route edges="1110162265#2 378597200#3 378597200#4"/>
    </vehicle>
    <vehicle id="284" depart="890.20">
        <route edges="171888545#2 171888545#3 171888545#4 1110162267#0 1110162267#1"/>
    </vehicle>
    <vehicle id="285" depart="892.60">
        <route edges="171888545#2 171888545#3 171888545#4 378597200#3"/>
    </vehicle>
    <vehicle id="286" depart="893.00">
        <route edges="1110162265#1 1110162265#2 378597200#3 378597200#4"/>
    </vehicle>
    <vehicle id="289" depart="901.40">
        <route edges="171888545#2 171888545#3 171888545#4 1110162267#0 1110162267#1 458681912#1 458681912#2"/>
    </vehicle>
    <vehicle id="290" depart="905.00">
        <route edges="1110162265#2 378597200#3"/>
    </vehicle>
    <vehicle id="291" depart="908.80">
        <route edges="171888545#3 171888545#4 1110162267#0"/>
    </vehicle>
    <vehicle id="292" depart="913.40">
        <route edges="1110162267#1 458681912#1 458681912#2"/>
    </vehicle>
    <vehicle id="294" depart="917.20">
        <route edges="1110162265#1 1110162265#2 1110162267#0 1110162267#1"/>
    </vehicle>
    <vehicle id="298" depart="937.40">
        <route edges="1110162265#2"/>
    </vehicle>
    <vehicle id="299" depart="939.40">
        <route edges="1110162265#2"/>
    </vehicle>
    <vehicle id="300" depart="940.00">
        <route edges="1110162265#1 1110162265#2 777690253"/>
    </vehicle>
    <vehicle id="301" depart="941.40">
        <route edges="777690254 777690253"/>
    </vehicle>
    <vehicle id="303" depart="945.00">
        <route edges="378597200#3"/>
    </vehicle>
    <vehicle id="304" depart="953.00">
        <route edges="171888545#3 171888545#4 1110162267#0 1110162267#1 458681912#1"/>
    </vehicle>
    <vehicle id="306" depart="960.60">
        <route edges="1110162267#1"/>
    </vehicle>
    <vehicle id="307" depart="963.20">
        <route edges="777690254 1110162267#0 1110162267#1 458681912#1 458681912#2"/>
    </vehicle>
    <vehicle id="310" depart="971.60">
        <route edges="171888545#2 171888545#3 171888545#4 1110162267#0 1110162267#1"/>
    </vehicle>
    <vehicle id="311" depart="974.00">
        <route edges="1110162265#2 1110162267#0 1110162267#1 458681912#1"/>
    </vehicle>
    <vehicle id="312" depart="987.20">
        <route edges="1110162267#0 1110162267#1"/>
    </vehicle>
    <vehicle id="318" depart="1002.20">
        <route edges="171888545#2 171888545#3 171888545#4 378597200#3 378597200#4"/>
    </vehicle>
    <vehicle id="319" depart="1008.00">
        <route edges="1110162265#1 1110162265#2 378597200#3"/>
    </vehicle>
    <vehicle id="320" depart="1012.00">
        <route edges="777690254 378597200#3 378597200#4"/>
    </vehicle>
    <vehicle id="324" depart="1023.20">
        <route edges="777690254 378597200#3 378597200#4"/>
    </vehicle>
    <vehicle id="327" depart="1038.20">
        <route edges="458681912#1"/>
    </vehicle>
    <vehicle id="329" depart="1043.60">
        <route edges="171888545#3 171888545#4 1110162267#0 1110162267#1"/>
    </vehicle>
    <vehicle id="331" depart="1048.00">
        <route edges="171888545#3 171888545#4 1110162267#0"/>
    </vehicle>
    <vehicle id="333" depart="1070.00">
        <route edges="1110162267#1 458681912#1 458681912#2"/>
    </vehicle>
    <vehicle id="335" depart="1074.40">
        <route edges="1110162265#2 378597200#3 378597200#4"/>
    </vehicle>
    <vehicle id="336" depart="1076.40">
        <route edges="1110162265#2 378597200#3 378597200#4"/>
    </vehicle>
    <vehicle id="339" depart="1086.80">
        <route edges="171888545#3 171888545#4 378597200#3"/>
    </vehicle>
    <vehicle id="340" depart="1087.20">
        <route edges="171888545#2 171888545#3 171888545#4 1110162267#0 1110162267#1 458681912#1 458681912#2"/>
    </vehicle>
    <vehicle id="341" depart="1091.20">
        <route edges="1110162265#2 378597200#3 378597200#4"/>
    </vehicle>
    <vehicle id="342" depart="1096.60">
        <route edges="171888545#2 171888545#3 171888545#4 378597200#3"/>
    </vehicle>
    <vehicle id="343" depart="1101.00">
        <route edges="1110162265#1 1110162265#2 1110162267#0 1110162267#1 458681912#1"/>
    </vehicle>
    <vehicle id="344" depart="1101.40">
        <route edges="171888545#4 378597200#3 378597200#4"/>
    </vehicle>
    <vehicle id="345" depart="1107.40">
        <route edges="777690254 378597200#3"/>
    </vehicle>
    <vehicle id="346" depart="1112.40">
        <route edges="171888545#2 171888545#3 171888545#4 1110162267#0"/>
    </vehicle>
    <vehicle id="348" depart="1120.80">
        <route edges="1110162267#1"/>
    </vehicle>
    <vehicle id="349" depart="1121.20">
        <route edges="171888545#2 171888545#3 171888545#4 378597200#3 378597200#4"/>
    </vehicle>
    <vehicle id="350" depart="1121.60">
        <route edges="1110162267#0 1110162267#1 458681912#1"/>
    </vehicle>
    <vehicle id="351" depart="1123.20">
        <route edges="1110162265#2 378597200#3 378597200#4"/>
    </vehicle>
    <vehicle id="352" depart="1123.40">
        <route edges="171888545#2 171888545#3"/>
    </vehicle>
    <vehicle id="357" depart="1163.20">
        <route edges="171888545#3 171888545#4"/>
    </vehicle>
    <vehicle id="359" depart="1167.20">
        <route edges="1110162267#1"/>
    </vehicle>
    <vehicle id="361" depart="1171.20">
        <route edges="171888545#2 171888545#3 171888545#4 1110162267#0 1110162267#1 458681912#1"/>
    </vehicle>
    <vehicle id="363" depart="1180.60">
        <route edges="777690254 1110162267#0 1110162267#1"/>
    </vehicle>
    <vehicle id="364" depart="1182.60">
        <route edges="777690254 378597200#3"/>
    </vehicle>
    <vehicle id="365" depart="1188.60">
        <route edges="777690254 777690253"/>
    </vehicle>
    <vehicle id="366" depart="1189.80">
        <route edges="777690254 1110162267#0 1110162267#1"/>
    </vehicle>
    <vehicle id="367" depart="1194.00">
        <route edges="171888545#2 171888545#3 171888545#4"/>
    </vehicle>
    <vehicle id="368" depart="1199.80">
        <route edges="1110162265#1 1110162265#2 378597200#3 378597200#4"/>
    </vehicle>
    <vehicle id="371" depart="1217.00">
        <route edges="777690254 1110162267#0"/>
    </vehicle>
    <vehicle id="372" depart="1219.20">
        <route edges="777690254 378597200#3 378597200#4"/>
    </vehicle>
    <vehicle id="373" depart="1228.00">
        <route edges="1110162265#2 777690253"/>
    </vehicle>
    <vehicle id="374" depart="1232.00">
        <route edges="171888545#3 171888545#4 378597200#3"/>
    </vehicle>
    <vehicle id="375" depart="1232.00">
        <route edges="777690254 777690253"/>
    </vehicle>
    <vehicle id="378" depart="1241.80">
        <route edges="777690254 1110162267#0 1110162267#1"/>
    </vehicle>
    <vehicle id="379" depart="1242.60">
        <route edges="1110162265#1 1110162265#2 378597200#3"/>
    </vehicle>
    <vehicle id="380" depart="1247.40">
        <route edges="777690254 378597200#3 378597200#4"/>
    </vehicle>
    <vehicle id="381" depart="1247.80">
        <route edges="1110162267#0"/>
    </vehicle>
    <vehicle id="382" depart="1247.80">
        <route edges="1110162265#2 378597200#3"/>
    </vehicle>
    <vehicle id="383" depart="1249.20">
        <route edges="1110162265#2 1110162267#0 1110162267#1"/>
    </vehicle>
    <vehicle id="384" depart="1254.80">
        <route edges="1110162267#1"/>
    </vehicle>
    <vehicle id="386" depart="1266.20">
        <route edges="1110162265#2"/>
    </vehicle>
    <vehicle id="387" depart="1269.40">
        <route edges="777690254 378597200#3"/>
    </vehicle>
    <vehicle id="390" depart="1276.00">
        <route edges="171888545#4 378597200#3"/>
    </vehicle>
    <vehicle id="394" depart="1286.00">
        <route edges="171888545#2 171888545#3 171888545#4 378597200#3 378597200#4"/>
    </vehicle>
    <vehicle id="395" depart="1305.00">
        <route edges="171888545#4 1110162267#0 1110162267#1 458681912#1 458681912#2"/>
    </vehicle>
    <vehicle id="398" depart="1315.00">
        <route edges="1110162267#0 1110162267#1 458681912#1 458681912#2"/>
    </vehicle>
    <vehicle id="399" depart="1321.40">
        <route edges="1110162265#1 1110162265#2 777690253"/>
    </vehicle>
    <vehicle id="400" depart="1325.80">
        <route edges="1110162265#2 777690253"/>
    </vehicle>
    <vehicle id="401" depart="1331.40">
        <route edges="171888545#3 171888545#4 777690253"/>
    </vehicle>
    <vehicle id="403" depart="1334.40">