<?xml version="1.0" encoding="UTF-8"?>

<!-- generated on 2023-04-22 12:59:25 by Eclipse SUMO duarouter Version 1.16.0
<configuration xmlns:xsi="http://www.w3.org/2001/XMLSchema-instance" xsi:noNamespaceSchemaLocation="http://sumo.dlr.de/xsd/duarouterConfiguration.xsd">

    <input>
        <net-file value="NetworkFile.net.xml"/>
        <route-files value="route1.rou.xml"/>
    </input>

    <output>
        <output-file value="route1.rou.xml.rerouted.rou.xml"/>
    </output>

    <processing>
        <routing-threads value="1"/>
        <routing-algorithm value="astar"/>
    </processing>

    <report>
        <aggregate-warnings value="1"/>
        <no-step-log value="true"/>
    </report>

</configuration>
-->

<routes xmlns:xsi="http://www.w3.org/2001/XMLSchema-instance" xsi:noNamespaceSchemaLocation="http://sumo.dlr.de/xsd/routes_file.xsd">
    <vehicle id="0" depart="3.40">
        <route edges="171888545#3"/>
    </vehicle>
    <vehicle id="2" depart="5.60">
        <route edges="1110162267#0"/>
    </vehicle>
    <vehicle id="3" depart="5.80">
        <route edges="171888545#4 378597200#3"/>
    </vehicle>
    <vehicle id="4" depart="11.20">
        <route edges="171888545#3 171888545#4 1110162267#0"/>
    </vehicle>
    <vehicle id="5" depart="13.00">
        <route edges="1110162265#2 1110162267#0"/>
    </vehicle>
    <vehicle id="8" depart="17.80">
        <route edges="171888545#2 171888545#3 171888545#4 378597200#3 378597200#4"/>
    </vehicle>
    <vehicle id="10" depart="18.80">
        <route edges="171888545#3"/>
    </vehicle>
    <vehicle id="11" depart="21.00">
        <route edges="171888545#3 171888545#4 378597200#3 378597200#4"/>
    </vehicle>
    <vehicle id="12" depart="21.20">
        <route edges="777690254 1110162267#0 1110162267#1"/>
    </vehicle>
    <vehicle id="15" depart="34.80">
        <route edges="171888545#3 171888545#4 777690253"/>
    </vehicle>
    <vehicle id="16" depart="38.40">
        <route edges="1110162265#1 1110162265#2 1110162267#0"/>
    </vehicle>
    <vehicle id="17" depart="47.20">
        <route edges="1110162265#2 378597200#3 378597200#4"/>
    </vehicle>
    <vehicle id="18" depart="47.20">
        <route edges="777690254 1110162267#0 1110162267#1"/>
    </vehicle>
    <vehicle id="20" depart="48.20">
        <route edges="171888545#3 171888545#4 1110162267#0 1110162267#1 458681912#1"/>
    </vehicle>
    <vehicle id="21" depart="56.20">
        <route edges="1110162267#0 1110162267#1 458681912#1 458681912#2"/>
    </vehicle>
    <vehicle id="23" depart="57.40">
        <route edges="777690254 378597200#3"/>
    </vehicle>
    <vehicle id="24" depart="57.40">
        <route edges="1110162265#1 1110162265#2 1110162267#0 1110162267#1 458681912#1 458681912#2"/>
    </vehicle>
    <vehicle id="25" depart="58.00">
        <route edges="171888545#2 171888545#3 171888545#4 1110162267#0"/>
    </vehicle>
    <vehicle id="27" depart="62.00">
        <route edges="171888545#4 378597200#3"/>
    </vehicle>
    <vehicle id="28" depart="66.00">
        <route edges="1110162265#1 1110162265#2 1110162267#0 1110162267#1 458681912#1"/>
    </vehicle>
    <vehicle id="29" depart="69.60">
        <route edges="378597200#3"/>
    </vehicle>
    <vehicle id="32" depart="71.20">
        <route edges="1110162267#1 458681912#1 458681912#2"/>
    </vehicle>
    <vehicle id="33" depart="73.00">
        <route edges="171888545#3 171888545#4"/>
    </vehicle>
    <vehicle id="34" depart="73.40">
        <route edges="171888545#2 171888545#3 171888545#4"/>
    </vehicle>
    <vehicle id="35" depart="74.40">
        <route edges="777690254 777690253"/>
    </vehicle>
    <vehicle id="36" depart="75.40">
        <route edges="777690254 777690253"/>
    </vehicle>
    <vehicle id="41" depart="84.20">
        <route edges="1110162265#1 1110162265#2 777690253"/>
    </vehicle>
    <vehicle id="43" depart="86.40">
        <route edges="171888545#4 1110162267#0"/>
    </vehicle>
    <vehicle id="44" depart="87.80">
        <route edges="1110162265#2 777690253"/>
    </vehicle>
    <vehicle id="45" depart="89.20">
        <route edges="1110162267#0"/>
    </vehicle>
    <vehicle id="46" depart="89.40">
        <route edges="458681912#1 458681912#2"/>
    </vehicle>
    <vehicle id="49" depart="91.60">
        <route edges="777690254 378597200#3 378597200#4"/>
    </vehicle>
    <vehicle id="50" depart="91.60">
        <route edges="378597200#3 378597200#4"/>
    </vehicle>
    <vehicle id="51" depart="92.60">
        <route edges="171888545#2 171888545#3 171888545#4 777690253"/>
    </vehicle>
    <vehicle id="52" depart="92.80">
        <route edges="1110162265#2 378597200#3 378597200#4"/>
    </vehicle>
    <vehicle id="53" depart="93.60">
        <route edges="777690254 1110162267#0 1110162267#1 458681912#1"/>
    </vehicle>
    <vehicle id="54" depart="96.60">
        <route edges="171888545#3 171888545#4 1110162267#0 1110162267#1 458681912#1 458681912#2"/>
    </vehicle>
    <vehicle id="55" depart="97.60">
        <route edges="1110162267#1 458681912#1"/>
    </vehicle>
    <vehicle id="56" depart="100.00">
        <route edges="1110162265#2 1110162267#0 1110162267#1 458681912#1 458681912#2"/>
    </vehicle>
    <vehicle id="59" depart="103.80">
        <route edges="171888545#3 171888545#4 1110162267#0 1110162267#1 458681912#1 458681912#2"/>
    </vehicle>
    <vehicle id="63" depart="109.40">
        <route edges="777690254 1110162267#0 1110162267#1"/>
    </vehicle>
    <vehicle id="65" depart="112.00">
        <route edges="777690254 378597200#3"/>
    </vehicle>
    <vehicle id="67" depart="115.00">
        <route edges="1110162267#0 1110162267#1 458681912#1 458681912#2"/>
    </vehicle>
    <vehicle id="68" depart="115.20">
        <route edges="1110162267#0"/>
    </vehicle>
    <vehicle id="69" depart="115.80">
        <route edges="1110162265#2 1110162267#0 1110162267#1 458681912#1"/>
    </vehicle>
    <vehicle id="71" depart="117.20">
        <route edges="1110162265#2 1110162267#0 1110162267#1"/>
    </vehicle>
    <vehicle id="73" depart="120.40">
        <route edges="1110162265#1 1110162265#2 378597200#3 378597200#4"/>
    </vehicle>
    <vehicle id="74" depart="120.80">
        <route edges="171888545#3 171888545#4 1110162267#0 1110162267#1"/>
    </vehicle>
    <vehicle id="75" depart="121.00">
        <route edges="171888545#3 171888545#4 1110162267#0 1110162267#1"/>
    </vehicle>
    <vehicle id="77" depart="125.20">
        <route edges="1110162265#1 1110162265#2 777690253"/>
    </vehicle>
    <vehicle id="78" depart="125.40">
        <route edges="171888545#3"/>
    </vehicle>
    <vehicle id="79" depart="126.40">
        <route edges="171888545#2 171888545#3 171888545#4 777690253"/>
    </vehicle>
    <vehicle id="80" depart="128.00">
        <route edges="171888545#2 171888545#3"/>
    </vehicle>
    <vehicle id="84" depart="142.40">
        <route edges="171888545#3 171888545#4 1110162267#0"/>
    </vehicle>
    <vehicle id="87" depart="151.00">
        <route edges="171888545#4 1110162267#0 1110162267#1 458681912#1"/>
    </vehicle>
    <vehicle id="91" depart="157.80">
        <route edges="777690254 1110162267#0 1110162267#1"/>
    </vehicle>
    <vehicle id="92" depart="158.00">
        <route edges="1110162265#1 1110162265#2 1110162267#0 1110162267#1"/>
    </vehicle>
    <vehicle id="94" depart="163.80">
        <route edges="171888545#2 171888545#3 171888545#4 1110162267#0 1110162267#1"/>
    </vehicle>
    <vehicle id="96" depart="165.20">
        <route edges="171888545#3 171888545#4 1110162267#0"/>
    </vehicle>
    <vehicle id="97" depart="167.40">
        <route edges="1110162265#1 1110162265#2"/>
    </vehicle>
    <vehicle id="98" depart="168.40">
        <route edges="171888545#2 171888545#3 171888545#4 378597200#3 378597200#4"/>
    </vehicle>
    <vehicle id="99" depart="169.20">
        <route edges="458681912#1"/>
    </vehicle>
    <vehicle id="100" depart="172.40">
        <route edges="171888545#4 378597200#3 378597200#4"/>
    </vehicle>
    <vehicle id="102" depart="179.00">
        <route edges="1110162265#1 1110162265#2 1110162267#0 1110162267#1"/>
    </vehicle>
    <vehicle id="105" depart="190.20">
        <route edges="458681912#1"/>
    </vehicle>
    <vehicle id="106" depart="190.40">
        <route edges="171888545#4 1110162267#0 1110162267#1 458681912#1 458681912#2"/>
    </vehicle>
    <vehicle id="107" depart="192.20">
        <route edges="1110162265#1 1110162265#2 378597200#3 378597200#4"/>
    </vehicle>
    <vehicle id="112" depart="199.60">
        <route edges="171888545#2 171888545#3 171888545#4 1110162267#0 1110162267#1"/>
    </vehicle>
    <vehicle id="114" depart="201.80">
        <route edges="378597200#3 378597200#4"/>
    </vehicle>
    <vehicle id="117" depart="205.60">
        <route edges="1110162265#2 1110162267#0 1110162267#1 458681912#1"/>
    </vehicle>
    <vehicle id="118" depart="205.80">
        <route edges="1110162267#0 1110162267#1 458681912#1"/>
    </vehicle>
    <vehicle id="123" depart="212.60">
        <route edges="458681912#1"/>
    </vehicle>
    <vehicle id="124" depart="213.40">
        <route edges="171888545#3 171888545#4"/>
    </vehicle>
    <vehicle id="125" depart="214.20">
        <route edges="1110162265#2 1110162267#0"/>
    </vehicle>
    <vehicle id="129" depart="222.80">
        <route edges="171888545#2 171888545#3 171888545#4 378597200#3 378597200#4"/>
    </vehicle>
    <vehicle id="130" depart="223.80">
        <route edges="171888545#2 171888545#3"/>
    </vehicle>
    <vehicle id="131" depart="224.00">
        <route edges="1110162265#2 777690253"/>
    </vehicle>
    <vehicle id="133" depart="233.40">
        <route edges="171888545#4 1110162267#0 1110162267#1 458681912#1 458681912#2"/>
    </vehicle>
    <vehicle id="134" depart="234.80">
        <route edges="1110162265#1 1110162265#2 1110162267#0"/>
    </vehicle>
    <vehicle id="135" depart="236.60">
        <route edges="171888545#4 1110162267#0 1110162267#1 458681912#1 458681912#2"/>
    </vehicle>
    <vehicle id="137" depart="239.20">
        <route edges="1110162265#2 378597200#3"/>
    </vehicle>
    <vehicle id="140" depart="239.80">
        <route edges="171888545#2 171888545#3 171888545#4 1110162267#0"/>
    </vehicle>
    <vehicle id="141" depart="242.40">
        <route edges="171888545#4"/>
    </vehicle>
    <vehicle id="142" depart="244.20">
        <route edges="1110162265#1 1110162265#2"/>
    </vehicle>
    <vehicle id="143" depart="246.20">
        <route edges="1110162265#2 1110162267#0 1110162267#1 458681912#1"/>
    </vehicle>
    <vehicle id="146" depart="247.40">
        <route edges="1110162265#2 1110162267#0 1110162267#1"/>
    </vehicle>
    <vehicle id="147" depart="248.80">
        <route edges="1110162265#1 1110162265#2 378597200#3"/>
    </vehicle>
    <vehicle id="148" depart="250.40">
        <route edges="1110162265#2 777690253"/>
    </vehicle>
    <vehicle id="149" depart="251.80">
        <route edges="171888545#4 378597200#3"/>
    </vehicle>
    <vehicle id="150" depart="255.20">
        <route edges="1110162265#1 1110162265#2 1110162267#0 1110162267#1 458681912#1"/>
    </vehicle>
    <vehicle id="151" depart="259.40">
        <route edges="1110162265#2 1110162267#0 1110162267#1 458681912#1 458681912#2"/>
    </vehicle>
    <vehicle id="155" depart="274.00">
        <route edges="171888545#4 1110162267#0 1110162267#1"/>
    </vehicle>
    <vehicle id="157" depart="275.20">
        <route edges="1110162265#1 1110162265#2 1110162267#0 1110162267#1"/>
    </vehicle>
    <vehicle id="158" depart="280.20">
        <route edges="1110162265#2 378597200#3"/>
    </vehicle>
    <vehicle id="159" depart="281.40">
        <route edges="1110162265#2"/>
    </vehicle>
    <vehicle id="160" depart="283.40">
        <route edges="171888545#4 1110162267#0 1110162267#1 458681912#1"/>
    </vehicle>
    <vehicle id="161" depart="284.00">
        <route edges="1110162265#1 1110162265#2 1110162267#0"/>
    </vehicle>
    <vehicle id="162" depart="286.80">
        <route edges="1110162267#1 458681912#1 458681912#2"/>
    </vehicle>
    <vehicle id="163" depart="291.80">
        <route edges="1110162265#1 1110162265#2 1110162267#0 1110162267#1 458681912#1"/>
    </vehicle>
    <vehicle id="164" depart="292.20">
        <route edges="1110162265#1 1110162265#2 1110162267#0 1110162267#1 458681912#1"/>
    </vehicle>
    <vehicle id="166" depart="301.20">
        <route edges="171888545#4 378597200#3 378597200#4"/>
    </vehicle>
    <vehicle id="167" depart="302.40">
        <route edges="378597200#3"/>
    </vehicle>
    <vehicle id="168" depart="302.40">
        <route edges="171888545#2 171888545#3 171888545#4 1110162267#0 1110162267#1 458681912#1"/>
    </vehicle>
    <vehicle id="169" depart="304.20">
        <route edges="171888545#3 171888545#4 777690253"/>
    </vehicle>
    <vehicle id="172" depart="306.00">
        <route edges="171888545#3 171888545#4 1110162267#0 1110162267#1"/>
    </vehicle>
    <vehicle id="174" depart="308.00">
        <route edges="171888545#4"/>
    </vehicle>
    <vehicle id="175" depart="316.80">
        <route edges="171888545#3 171888545#4"/>
    </vehicle>
    <vehicle id="176" depart="317.40">
        <route edges="171888545#2 171888545#3 171888545#4 777690253"/>
    </vehicle>
    <vehicle id="178" depart="320.80">
        <route edges="777690254 1110162267#0 1110162267#1 458681912#1 458681912#2"/>
    </vehicle>
    <vehicle id="183" depart="332.60">
        <route edges="171888545#4 777690253"/>
    </vehicle>
    <vehicle id="184" depart="333.20">
        <route edges="378597200#3 378597200#4"/>
    </vehicle>
    <vehicle id="186" depart="336.00">
        <route edges="171888545#2 171888545#3 171888545#4 1110162267#0"/>
    </vehicle>
    <vehicle id="187" depart="336.00">
        <route edges="171888545#4 777690253"/>
    </vehicle>
    <vehicle id="189" depart="339.40">
        <route edges="171888545#2 171888545#3 171888545#4"/>
    </vehicle>
    <vehicle id="191" depart="344.60">
        <route edges="1110162265#2"/>
    </vehicle>
    <vehicle id="193" depart="346.00">
        <route edges="171888545#3 171888545#4 378597200#3"/>
    </vehicle>
    <vehicle id="195" depart="349.60">
        <route edges="171888545#3 171888545#4 1110162267#0 1110162267#1 458681912#1 458681912#2"/>
    </vehicle>
    <vehicle id="197" depart="352.40">
        <route edges="171888545#2 171888545#3"/>
    </vehicle>
    <vehicle id="200" depart="363.60">
        <route edges="1110162265#1 1110162265#2 1110162267#0 1110162267#1 458681912#1"/>
    </vehicle>
    <vehicle id="201" depart="364.20">
        <route edges="1110162265#1 1110162265#2 378597200#3 378597200#4"/>
    </vehicle>
    <vehicle id="202" depart="365.40">
        <route edges="1110162265#1 1110162265#2 1110162267#0 1110162267#1 458681912#1"/>
    </vehicle>
    <vehicle id="203" depart="365.80">
        <route edges="171888545#3 171888545#4 1110162267#0"/>
    </vehicle>
    <vehicle id="205" depart="372.60">
        <route edges="1110162265#2"/>
    </vehicle>
    <vehicle id="206" depart="373.40">
        <route edges="171888545#2 171888545#3 171888545#4 1110162267#0 1110162267#1 458681912#1 458681912#2"/>
    </vehicle>
    <vehicle id="207" depart="373.80">
        <route edges="1110162265#2 1110162267#0 1110162267#1"/>
    </vehicle>
    <vehicle id="208" depart="376.80">
        <route edges="171888545#2 171888545#3 171888545#4"/>
    </vehicle>
    <vehicle id="210" depart="381.60">
        <route edges="1110162265#1 1110162265#2 1110162267#0 1110162267#1"/>
    </vehicle>
    <vehicle id="212" depart="383.60">
        <route edges="1110162267#0 1110162267#1 458681912#1 458681912#2"/>
    </vehicle>
    <vehicle id="213" depart="384.80">
        <route edges="777690254 1110162267#0 1110162267#1"/>
    </vehicle>
    <vehicle id="214" depart="391.80">
        <route edges="171888545#3 171888545#4 1110162267#0 1110162267#1 458681912#1 458681912#2"/>
    </vehicle>
    <vehicle id="215" depart="392.80">
        <route edges="171888545#3 171888545#4 378597200#3"/>
    </vehicle>
    <vehicle id="217" depart="394.80">
        <route edges="171888545#3 171888545#4 378597200#3 378597200#4"/>
    </vehicle>
    <vehicle id="218" depart="395.00">
        <route edges="171888545#3 171888545#4 777690253"/>
    </vehicle>
    <vehicle id="219" depart="399.00">
        <route edges="1110162265#1 1110162265#2 1110162267#0 1110162267#1 458681912#1 458681912#2"/>
    </vehicle>
    <vehicle id="224" depart="401.80">
        <route edges="1110162265#2 1110162267#0 1110162267#1 458681912#1"/>
    </vehicle>
    <vehicle id="225" depart="403.80">
        <route edges="1110162267#0 1110162267#1 458681912#1"/>
    </vehicle>
    <vehicle id="226" depart="404.80">
        <route edges="458681912#1 458681912#2"/>
    </vehicle>
    <vehicle id="227" depart="408.60">
        <route edges="171888545#4 378597200#3 378597200#4"/>
    </vehicle>
    <vehicle id="228" depart="412.60">
        <route edges="1110162267#1 458681912#1"/>
    </vehicle>
    <vehicle id="229" depart="415.60">
        <route edges="1110162265#1 1110162265#2 1110162267#0 1110162267#1 458681912#1 458681912#2"/>
    </vehicle>
    <vehicle id="230" depart="416.60">
        <route edges="171888545#4 1110162267#0 1110162267#1 458681912#1"/>
    </vehicle>
    <vehicle id="231" depart="418.00">
        <route edges="777690254 378597200#3"/>
    </vehicle>
    <vehicle id="232" depart="419.20">
        <route edges="171888545#2 171888545#3 171888545#4 1110162267#0 1110162267#1 458681912#1"/>
    </vehicle>
    <vehicle id="233" depart="419.20">
        <route edges="171888545#2 171888545#3 171888545#4 378597200#3 378597200#4"/>
    </vehicle>
    <vehicle id="235" depart="427.00">
        <route edges="171888545#3 171888545#4 1110162267#0"/>
    </vehicle>
    <vehicle id="236" depart="433.00">
        <route edges="171888545#3 171888545#4 1110162267#0 1110162267#1"/>
    </vehicle>
    <vehicle id="238" depart="437.40">
        <route edges="171888545#4 1110162267#0 1110162267#1 458681912#1 458681912#2"/>
    </vehicle>
    <vehicle id="239" depart="438.00">
        <route edges="458681912#1 458681912#2"/>
    </vehicle>
    <vehicle id="244" depart="446.40">
        <route edges="1110162265#2 1110162267#0"/>
    </vehicle>
    <vehicle id="245" depart="446.60">
        <route edges="171888545#2 171888545#3 171888545#4 777690253"/>
    </vehicle>
    <vehicle id="246" depart="447.40">
        <route edges="171888545#4 1110162267#0"/>
    </vehicle>
    <vehicle id="248" depart="450.20">
        <route edges="171888545#3 171888545#4 1110162267#0 1110162267#1"/>
    </vehicle>
    <vehicle id="250" depart="454.60">
        <route edges="1110162265#1 1110162265#2 1110162267#0"/>
    </vehicle>
    <vehicle id="251" depart="460.40">
        <route edges="171888545#4 1110162267#0"/>
    </vehicle>
    <vehicle id="252" depart="462.00">
        <route edges="171888545#2 171888545#3 171888545#4 1110162267#0 1110162267#1 458681912#1 458681912#2"/>
    </vehicle>
    <vehicle id="253" depart="462.00">
        <route edges="171888545#4 1110162267#0 1110162267#1 458681912#1"/>
    </vehicle>
    <vehicle id="254" depart="462.80">
        <route edges="1110162265#2 1110162267#0 1110162267#1 458681912#1"/>
    </vehicle>
    <vehicle id="255" depart="466.00">
        <route edges="171888545#2 171888545#3 171888545#4 1110162267#0 1110162267#1 458681912#1"/>
    </vehicle>
    <vehicle id="256" depart="467.00">
        <route edges="171888545#2 171888545#3 171888545#4 1110162267#0 1110162267#1 458681912#1"/>
    </vehicle>
    <vehicle id="257" depart="470.00">
        <route edges="777690254 1110162267#0 1110162267#1 458681912#1"/>
    </vehicle>
    <vehicle id="261" depart="481.20">
        <route edges="777690254 378597200#3 378597200#4"/>
    </vehicle>
    <vehicle id="262" depart="482.60">
        <route edges="171888545#3 171888545#4"/>
    </vehicle>
    <vehicle id="263" depart="483.60">
        <route edges="171888545#3 171888545#4"/>
    </vehicle>
    <vehicle id="264" depart="484.40">
        <route edges="171888545#4 378597200#3"/>
    </vehicle>
    <vehicle id="265" depart="486.40">
        <route edges="171888545#3 171888545#4 777690253"/>
    </vehicle>
    <vehicle id="266" depart="489.40">
        <route edges="777690254 378597200#3"/>
    </vehicle>
    <vehicle id="267" depart="490.20">
        <route edges="1110162265#1 1110162265#2 378597200#3 378597200#4"/>
    </vehicle>
    <vehicle id="269" depart="494.00">
        <route edges="777690254 1110162267#0 1110162267#1 458681912#1"/>
    </vehicle>
    <vehicle id="270" depart="494.00">
        <route edges="1110162265#1 1110162265#2 1110162267#0"/>
    </vehicle>
    <vehicle id="272" depart="499.40">
        <route edges="171888545#4 1110162267#0 1110162267#1"/>
    </vehicle>
    <vehicle id="274" depart="502.00">
        <route edges="171888545#2 171888545#3 171888545#4 378597200#3 378597200#4"/>
    </vehicle>
    <vehicle id="275" depart="502.80">
        <route edges="1110162267#0"/>
    </vehicle>
    <vehicle id="276" depart="503.00">
        <route edges="777690254 1110162267#0 1110162267#1 458681912#1 458681912#2"/>
    </vehicle>
    <vehicle id="277" depart="508.40">
        <route edges="171888545#4 378597200#3"/>
    </vehicle>
    <vehicle id="279" depart="510.20">
        <route edges="1110162265#2 777690253"/>
    </vehicle>
    <vehicle id="281" depart="519.20">
        <route edges="1110162265#2 777690253"/>
    </vehicle>
    <vehicle id="282" depart="520.00">
        <route edges="171888545#3 171888545#4 1110162267#0 1110162267#1 458681912#1"/>
    </vehicle>
    <vehicle id="283" depart="521.20">
        <route edges="1110162267#1"/>
    </vehicle>
    <vehicle id="285" depart="530.60">
        <route edges="1110162265#1 1110162265#2 1110162267#0"/>
    </vehicle>
    <vehicle id="287" depart="534.00">
        <route edges="171888545#2 171888545#3 171888545#4 1110162267#0 1110162267#1 458681912#1"/>
    </vehicle>
    <vehicle id="288" depart="535.40">
        <route edges="777690254 1110162267#0"/>
    </vehicle>
    <vehicle id="289" depart="535.60">
        <route edges="1110162265#1 1110162265#2"/>
    </vehicle>
    <vehicle id="290" depart="539.20">
        <route edges="1110162265#1 1110162265#2"/>
    </vehicle>
    <vehicle id="291" depart="541.00">
        <route edges="171888545#3 171888545#4 777690253"/>
    </vehicle>
    <vehicle id="293" depart="549.20">
        <route edges="171888545#3 171888545#4 378597200#3 378597200#4"/>
    </vehicle>
    <vehicle id="295" depart="551.60">
        <route edges="171888545#4 1110162267#0 1110162267#1"/>
    </vehicle>
    <vehicle id="297" depart="553.20">
        <route edges="1110162267#0 1110162267#1 458681912#1 458681912#2"/>
    </vehicle>
    <vehicle id="298" depart="556.20">
        <route edges="171888545#3"/>
    </vehicle>
    <vehicle id="299" depart="559.00">
        <route edges="171888545#3 171888545#4 378597200#3"/>
    </vehicle>
    <vehicle id="300" depart="561.00">
        <route edges="171888545#2 171888545#3 171888545#4 1110162267#0 1110162267#1 458681912#1"/>
    </vehicle>
    <vehicle id="301" depart="562.60">
        <route edges="171888545#3 171888545#4 1110162267#0 1110162267#1"/>
    </vehicle>
    <vehicle id="302" depart="564.40">
        <route edges="1110162265#1 1110162265#2 1110162267#0 1110162267#1 458681912#1 458681912#2"/>
    </vehicle>
    <vehicle id="303" depart="564.60">
        <route edges="777690254 1110162267#0"/>
    </vehicle>
    <vehicle id="307" depart="569.80">
        <route edges="777690254 378597200#3"/>
    </vehicle>
    <vehicle id="308" depart="570.00">
        <route edges="1110162267#1 458681912#1"/>
    </vehicle>
    <vehicle id="309" depart="572.60">
        <route edges="171888545#4 378597200#3"/>
    </vehicle>
    <vehicle id="311" depart="576.80">
        <route edges="777690254 777690253"/>
    </vehicle>
    <vehicle id="312" depart="579.80">
        <route edges="1110162267#1"/>
    </vehicle>
    <vehicle id="313" depart="580.60">
        <route edges="1110162265#1 1110162265#2"/>
    </vehicle>
    <vehicle id="314" depart="582.20">
        <route edges="1110162267#1 458681912#1"/>
    </vehicle>
    <vehicle id="316" depart="586.40">
        <route edges="1110162265#2 1110162267#0"/>
    </vehicle>
    <vehicle id="317" depart="592.40">
        <route edges="171888545#2 171888545#3 171888545#4 1110162267#0 1110162267#1"/>
    </vehicle>
    <vehicle id="318" depart="595.80">
        <route edges="171888545#4 378597200#3 378597200#4"/>
    </vehicle>
    <vehicle id="320" depart="597.60">
        <route edges="1110162265#2 777690253"/>
    </vehicle>
    <vehicle id="321" depart="598.40">
        <route edges="1110162267#1 458681912#1"/>
    </vehicle>
    <vehicle id="322" depart="603.20">
        <route edges="378597200#3"/>
    </vehicle>
    <vehicle id="325" depart="607.80">
        <route edges="1110162265#2 777690253"/>
    </vehicle>
    <vehicle id="327" depart="610.60">
        <route edges="171888545#4 378597200#3"/>
    </vehicle>
    <vehicle id="328" depart="611.80">
        <route edges="1110162265#1 1110162265#2 378597200#3"/>
    </vehicle>
    <vehicle id="333" depart="617.20">
        <route edges="1110162267#0 1110162267#1 458681912#1"/>
    </vehicle>
    <vehicle id="334" depart="618.20">
        <route edges="1110162265#1 1110162265#2 777690253"/>
    </vehicle>
    <vehicle id="335" depart="619.80">
        <route edges="171888545#3 171888545#4 378597200#3"/>
    </vehicle>
    <vehicle id="337" depart="629.20">
        <route edges="1110162267#1"/>
    </vehicle>
    <vehicle id="338" depart="633.80">
        <route edges="171888545#4 1110162267#0 1110162267#1 458681912#1"/>
    </vehicle>
    <vehicle id="339" depart="634.60">
        <route edges="171888545#4 777690253"/>
    </vehicle>
    <vehicle id="340" depart="635.20">
        <route edges="171888545#2 171888545#3 171888545#4 378597200#3 378597200#4"/>
    </vehicle>
    <vehicle id="341" depart="635.60">
        <route edges="171888545#2 171888545#3 171888545#4 777690253"/>
    </vehicle>
    <vehicle id="342" depart="637.00">
        <route edges="171888545#3"/>
    </vehicle>
    <vehicle id="343" depart="637.80">
        <route edges="171888545#3 171888545#4"/>
    </vehicle>
    <vehicle id="344" depart="638.60">
        <route edges="1110162265#1 1110162265#2 777690253"/>
    </vehicle>
    <vehicle id="345" depart="643.00">
        <route edges="171888545#4 1110162267#0 1110162267#1 458681912#1 458681912#2"/>
    </vehicle>
    <vehicle id="346" depart="645.80">
        <route edges="378597200#3 378597200#4"/>
    </vehicle>
    <vehicle id="348" depart="648.40">
        <route edges="171888545#2 171888545#3 171888545#4 378597200#3 378597200#4"/>
    </vehicle>
    <vehicle id="350" depart="651.60">
        <route edges="777690254 1110162267#0 1110162267#1"/>
    </vehicle>
    <vehicle id="357" depart="669.40">
        <route edges="777690254 1110162267#0 1110162267#1 458681912#1 458681912#2"/>
    </vehicle>
    <vehicle id="359" depart="672.20">
        <route edges="1110162265#1 1110162265#2"/>
    </vehicle>
    <vehicle id="362" depart="675.60">
        <route edges="458681912#1"/>
    </vehicle>
    <vehicle id="363" depart="676.00">
        <route edges="1110162267#0 1110162267#1"/>
    </vehicle>
    <vehicle id="364" depart="677.60">
        <route edges="1110162265#1 1110162265#2 1110162267#0"/>
    </vehicle>
    <vehicle id="367" depart="682.40">
        <route edges="1110162267#0 1110162267#1 458681912#1 458681912#2"/>
    </vehicle>
    <vehicle id="368" depart="682.60">
        <route edges="171888545#2 171888545#3 171888545#4"/>
    </vehicle>
    <vehicle id="369" depart="685.00">
        <route edges="171888545#3 171888545#4 1110162267#0 1110162267#1 458681912#1"/>
    </vehicle>
    <vehicle id="371" depart="687.00">
        <route edges="777690254 378597200#3 378597200#4"/>
    </vehicle>
    <vehicle id="372" depart="689.20">
        <route edges="171888545#4 1110162267#0"/>
    </vehicle>
    <vehicle id="373" depart="693.00">
        <route edges="777690254 1110162267#0 1110162267#1 458681912#1 458681912#2"/>
    </vehicle>
    <vehicle id="374" depart="695.60">
        <route edges="378597200#3"/>
    </vehicle>
    <vehicle id="376" depart="703.00">
        <route edges="171888545#4 777690253"/>
    </vehicle>
    <vehicle id="379" depart="707.40">
        <route edges="378597200#3"/>
    </vehicle>
    <vehicle id="381" depart="709.60">
        <route edges="1110162265#1 1110162265#2 1110162267#0"/>
    </vehicle>
    <vehicle id="382" depart="710.80">
        <route edges="1110162265#1 1110162265#2 1110162267#0 1110162267#1"/>
    </vehicle>
    <vehicle id="385" depart="720.80">
        <route edges="1110162265#1 1110162265#2 378597200#3"/>
    </vehicle>
    <vehicle id="386" depart="723.00">
        <route edges="171888545#3 171888545#4 378597200#3 378597200#4"/>
    </vehicle>