<?xml version="1.0" encoding="UTF-8"?>

<!-- generated on 2023-04-08 15:40:27 by Eclipse SUMO netedit Version 1.16.0
<configuration xmlns:xsi="http://www.w3.org/2001/XMLSchema-instance" xsi:noNamespaceSchemaLocation="http://sumo.dlr.de/xsd/netconvertConfiguration.xsd">

    <input>
        <sumocfg-file value="D:\SEM 8\Project\Folder 3\PrototypeSim2.sumocfg"/>
        <additional-files value="C:/Users/harsh/Sumo/2023-04-08-10-27-21/osm.poly.xml.gz"/>
        <route-files value="D:\SEM 8\Project\Folder 3\TrafficFlow.rou.xml"/>
        <sumo-net-file value="D:\SEM 8\Project\Folder 3\Network Files.net.xml"/>
    </input>

    <output>
        <edgetypes-file value="D:\SEM 8\Project\Folder 3\Edges.tll.xml"/>
        <output-file value="D:\SEM 8\Project\Folder 3\Network Files.net.xml"/>
        <output.street-names value="true"/>
    </output>

    <processing>
        <geometry.min-radius.fix.railways value="false"/>
        <geometry.max-grade.fix value="false"/>
        <offset.disable-normalization value="true"/>
        <lefthand value="1"/>
    </processing>

    <junctions>
        <no-turnarounds value="true"/>
        <junctions.corner-detail value="5"/>
        <junctions.limit-turn-speed value="5.50"/>
        <rectangular-lane-cut value="0"/>
    </junctions>

    <pedestrian>
        <walkingareas value="0"/>
    </pedestrian>

</configuration>
-->

<net version="1.16" junctionCornerDetail="5" lefthand="true" limitTurnSpeed="5.50" xmlns:xsi="http://www.w3.org/2001/XMLSchema-instance" xsi:noNamespaceSchemaLocation="http://sumo.dlr.de/xsd/net_file.xsd">

    <location netOffset="-778318.41,-1439537.22" convBoundary="0.00,0.00,1941.59,1347.03" origBoundary="77.560722,13.008923,77.583796,13.043934" projParameter="+proj=utm +zone=43 +ellps=WGS84 +datum=WGS84 +units=m +no_defs"/>

    <type id="highway.bridleway" priority="1" numLanes="1" speed="2.78" allow="pedestrian" oneway="1" width="2.00"/>
    <type id="highway.bus_guideway" priority="1" numLanes="1" speed="27.78" allow="bus" oneway="1"/>
    <type id="highway.cycleway" priority="1" numLanes="1" speed="5.56" allow="bicycle" oneway="0" width="1.00"/>
    <type id="highway.footway" priority="1" numLanes="1" speed="2.78" allow="pedestrian" oneway="1" width="2.00"/>
    <type id="highway.ford" priority="1" numLanes="1" speed="2.78" allow="army" oneway="0"/>
    <type id="highway.living_street" priority="2" numLanes="1" speed="2.78" disallow="tram rail_urban rail rail_electric rail_fast ship" oneway="0"/>
    <type id="highway.motorway" priority="14" numLanes="2" speed="39.44" allow="private emergency authority army vip passenger hov taxi bus coach delivery truck trailer motorcycle evehicle custom1 custom2" oneway="1"/>
    <type id="highway.motorway_link" priority="9" numLanes="1" speed="22.22" allow="private emergency authority army vip passenger hov taxi bus coach delivery truck trailer motorcycle evehicle custom1 custom2" oneway="1"/>
    <type id="highway.path" priority="1" numLanes="1" speed="5.56" allow="pedestrian bicycle" oneway="0" width="2.00"/>
    <type id="highway.pedestrian" priority="1" numLanes="1" speed="2.78" allow="pedestrian" oneway="1" width="2.00"/>
    <type id="highway.primary" priority="12" numLanes="2" speed="27.78" disallow="tram rail_urban rail rail_electric rail_fast ship" oneway="0"/>
    <type id="highway.primary_link" priority="7" numLanes="1" speed="22.22" disallow="tram rail_urban rail rail_electric rail_fast ship" oneway="0"/>
    <type id="highway.raceway" priority="15" numLanes="2" speed="83.33" allow="vip" oneway="0"/>
    <type id="highway.residential" priority="3" numLanes="1" speed="13.89" disallow="tram rail_urban rail rail_electric rail_fast ship" oneway="0"/>
    <type id="highway.secondary" priority="11" numLanes="1" speed="27.78" disallow="tram rail_urban rail rail_electric rail_fast ship" oneway="0"/>
    <type id="highway.secondary_link" priority="6" numLanes="1" speed="22.22" disallow="tram rail_urban rail rail_electric rail_fast ship" oneway="0"/>
    <type id="highway.service" priority="1" numLanes="1" speed="5.56" allow="pedestrian delivery bicycle" oneway="0"/>
    <type id="highway.stairs" priority="1" numLanes="1" speed="1.39" allow="pedestrian" oneway="1" width="2.00"/>
    <type id="highway.step" priority="1" numLanes="1" speed="1.39" allow="pedestrian" oneway="1" width="2.00"/>
    <type id="highway.steps" priority="1" numLanes="1" speed="1.39" allow="pedestrian" oneway="1" width="2.00"/>
    <type id="highway.tertiary" priority="10" numLanes="1" speed="22.22" disallow="tram rail_urban rail rail_electric rail_fast ship" oneway="0"/>
    <type id="highway.tertiary_link" priority="5" numLanes="1" speed="22.22" disallow="tram rail_urban rail rail_electric rail_fast ship" oneway="0"/>
    <type id="highway.track" priority="1" numLanes="1" speed="5.56" allow="pedestrian motorcycle moped bicycle" oneway="0"/>
    <type id="highway.trunk" priority="13" numLanes="2" speed="27.78" disallow="pedestrian bicycle tram rail_urban rail rail_electric rail_fast ship" oneway="0"/>
    <type id="highway.trunk_link" priority="8" numLanes="1" speed="22.22" disallow="pedestrian bicycle tram rail_urban rail rail_electric rail_fast ship" oneway="0"/>
    <type id="highway.unclassified" priority="4" numLanes="1" speed="13.89" disallow="tram rail_urban rail rail_electric rail_fast ship" oneway="0"/>
    <type id="highway.unsurfaced" priority="1" numLanes="1" speed="8.33" disallow="tram rail_urban rail rail_electric rail_fast ship" oneway="0"/>
    <type id="railway.highspeed" priority="21" numLanes="1" speed="69.44" allow="rail_fast" oneway="1"/>
    <type id="railway.light_rail" priority="19" numLanes="1" speed="27.78" allow="rail_urban" oneway="1"/>
    <type id="railway.preserved" priority="16" numLanes="1" speed="27.78" allow="rail" oneway="1"/>
    <type id="railway.rail" priority="20" numLanes="1" speed="44.44" allow="rail" oneway="1"/>
    <type id="railway.subway" priority="18" numLanes="1" speed="27.78" allow="rail_urban" oneway="1"/>
    <type id="railway.tram" priority="17" numLanes="1" speed="13.89" allow="tram" oneway="1"/>

    <edge id=":10094610134_0" function="internal">
        <lane id=":10094610134_0_0" index="0" allow="pedestrian delivery bicycle" speed="3.65" length="4.67" shape="827.77,391.01 827.61,389.58 827.08,388.86 826.19,388.85 824.93,389.55"/>
    </edge>
    <edge id=":10094610141_0" function="internal">
        <lane id=":10094610141_0_0" index="0" allow="pedestrian delivery bicycle" speed="5.00" length="5.05" shape="425.32,698.32 424.97,699.66 424.28,700.56 423.24,701.00 421.85,700.99"/>
    </edge>
    <edge id=":10094610141_1" function="internal">
        <lane id=":10094610141_1_0" index="0" allow="pedestrian delivery bicycle" speed="5.56" length="10.28" shape="425.32,698.32 425.40,701.16 426.36,703.28 428.20,704.68 430.91,705.37"/>
    </edge>
    <edge id=":10094610141_2" function="internal">
        <lane id=":10094610141_2_0" index="0" allow="pedestrian delivery bicycle" speed="3.65" length="4.67" shape="425.32,698.32 425.98,699.60 426.74,700.08 427.57,699.78 428.50,698.67"/>
    </edge>
    <edge id=":10094610141_3" function="internal">
        <lane id=":10094610141_3_0" index="0" allow="pedestrian delivery bicycle" speed="5.07" length="5.09" shape="431.24,702.19 429.91,701.85 429.01,701.15 428.54,700.09 428.50,698.67"/>
    </edge>
    <edge id=":10094610141_4" function="internal">
        <lane id=":10094610141_4_0" index="0" allow="pedestrian delivery bicycle" speed="5.56" length="9.47" shape="431.24,702.19 421.85,700.99"/>
    </edge>
    <edge id=":10094610141_5" function="internal">
        <lane id=":10094610141_5_0" index="0" allow="pedestrian delivery bicycle" speed="3.65" length="4.67" shape="431.24,702.19 429.96,702.86 429.48,703.62 429.80,704.45 430.91,705.37"/>
    </edge>
    <edge id=":10094610141_6" function="internal">
        <lane id=":10094610141_6_0" index="0" allow="pedestrian delivery bicycle" speed="5.56" length="9.61" shape="421.37,704.16 430.91,705.37"/>
    </edge>
    <edge id=":10094610141_7" function="internal">
        <lane id=":10094610141_7_0" index="0" allow="pedestrian delivery bicycle" speed="5.56" length="10.35" shape="421.37,704.16 424.22,704.17 426.36,703.27 427.79,701.43 428.50,698.67"/>
    </edge>
    <edge id=":10094610141_8" function="internal">
        <lane id=":10094610141_8_0" index="0" allow="pedestrian delivery bicycle" speed="3.65" length="4.67" shape="421.37,704.16 422.68,703.54 423.19,702.81 422.91,701.96 421.85,700.99"/>
    </edge>
    <edge id=":10094610142_0" function="internal">
        <lane id=":10094610142_0_0" index="0" allow="pedestrian delivery bicycle" speed="5.51" length="5.75" shape="434.62,616.74 434.16,618.26 433.35,619.31 432.18,619.90 430.67,620.03"/>
    </edge>
    <edge id=":10094610142_1" function="internal">
        <lane id=":10094610142_1_0" index="0" allow="pedestrian delivery bicycle" speed="5.56" length="9.94" shape="434.62,616.74 433.28,626.58"/>
    </edge>
    <edge id=":10094610142_2" function="internal">
        <lane id=":10094610142_2_0" index="0" allow="pedestrian delivery bicycle" speed="5.56" length="10.63" shape="434.62,616.74 434.57,619.69 435.50,621.86 437.41,623.25 440.30,623.87"/>
    </edge>
    <edge id=":10094610142_3" function="internal">
        <lane id=":10094610142_3_0" index="0" allow="pedestrian delivery bicycle" speed="3.65" length="4.67" shape="434.62,616.74 435.22,618.05 435.94,618.57 436.80,618.30 437.78,617.24"/>
    </edge>
    <edge id=":10094610142_4" function="internal">
        <lane id=":10094610142_4_0" index="0" allow="pedestrian delivery bicycle" speed="4.95" length="5.12" shape="440.51,620.67 439.12,620.38 438.20,619.71 437.75,618.66 437.78,617.24"/>
    </edge>
    <edge id=":10094610142_5" function="internal">
        <lane id=":10094610142_5_0" index="0" allow="pedestrian delivery bicycle" speed="5.56" length="9.86" shape="440.51,620.67 430.67,620.03"/>
    </edge>
    <edge id=":10094610142_6" function="internal">
        <lane id=":10094610142_6_0" index="0" allow="pedestrian delivery bicycle" speed="5.56" length="10.55" shape="440.51,620.67 437.61,620.88 435.44,621.93 433.99,623.83 433.28,626.58"/>
    </edge>
    <edge id=":10094610142_7" function="internal">
        <lane id=":10094610142_7_0" index="0" allow="pedestrian delivery bicycle" speed="3.65" length="4.67" shape="440.51,620.67 439.26,621.39 438.81,622.16 439.15,622.99 440.30,623.87"/>
    </edge>
    <edge id=":10094610142_8" function="internal">
        <lane id=":10094610142_8_0" index="0" allow="pedestrian delivery bicycle" speed="5.34" length="5.55" shape="436.46,626.93 436.83,625.51 437.60,624.52 438.75,623.97 440.30,623.87"/>
    </edge>
    <edge id=":10094610142_9" function="internal">
        <lane id=":10094610142_9_0" index="0" allow="pedestrian delivery bicycle" speed="5.56" length="9.78" shape="436.46,626.93 437.78,617.24"/>
    </edge>
    <edge id=":10094610142_10" function="internal">
        <lane id=":10094610142_10_0" index="0" allow="pedestrian delivery bicycle" speed="5.56" length="10.38" shape="436.46,626.93 436.36,624.07 435.37,621.97 433.47,620.62 430.67,620.03"/>
    </edge>
    <edge id=":10094610142_11" function="internal">
        <lane id=":10094610142_11_0" index="0" allow="pedestrian delivery bicycle" speed="3.65" length="4.67" shape="436.46,626.93 435.79,625.65 435.04,625.17 434.20,625.48 433.28,626.58"/>
    </edge>
    <edge id=":10094610142_12" function="internal">
        <lane id=":10094610142_12_0" index="0" allow="pedestrian delivery bicycle" speed="4.99" length="5.05" shape="430.46,623.22 431.82,623.51 432.75,624.16 433.23,625.19 433.28,626.58"/>
    </edge>
    <edge id=":10094610142_13" function="internal">
        <lane id=":10094610142_13_0" index="0" allow="pedestrian delivery bicycle" speed="5.56" length="9.86" shape="430.46,623.22 440.30,623.87"/>
    </edge>
    <edge id=":10094610142_14" function="internal">
        <lane id=":10094610142_14_0" index="0" allow="pedestrian delivery bicycle" speed="5.56" length="10.56" shape="430.46,623.22 433.27,623.00 435.43,621.93 436.93,620.01 437.78,617.24"/>
    </edge>
    <edge id=":10094610142_15" function="internal">
        <lane id=":10094610142_15_0" index="0" allow="pedestrian delivery bicycle" speed="3.65" length="4.67" shape="430.46,623.22 431.71,622.50 432.16,621.73 431.81,620.90 430.67,620.03"/>
    </edge>
    <edge id=":10094610148_0" function="internal">
        <lane id=":10094610148_0_0" index="0" allow="delivery" speed="5.19" length="5.18" shape="639.49,631.51 639.87,630.08 640.57,629.10 641.60,628.57 642.94,628.48"/>
    </edge>
    <edge id=":10094610148_1" function="internal">
        <lane id=":10094610148_1_0" index="0" allow="pedestrian delivery bicycle" speed="3.65" length="4.67" shape="639.49,631.51 638.86,630.21 638.12,629.71 637.27,630.00 636.32,631.09"/>
    </edge>
    <edge id=":10094610148_2" function="internal">
        <lane id=":10094610148_2_0" index="0" allow="delivery" speed="4.99" length="5.05" shape="633.57,627.67 634.93,627.98 635.84,628.66 636.30,629.69 636.32,631.09"/>
    </edge>
    <edge id=":10094610148_3" function="internal">
        <lane id=":10094610148_3_0" index="0" disallow="pedestrian bicycle tram rail_urban rail rail_electric rail_fast ship" speed="16.67" length="9.41" shape="633.57,627.67 642.94,628.48"/>
        <lane id=":10094610148_3_1" index="1" disallow="pedestrian bicycle tram rail_urban rail rail_electric rail_fast ship" speed="16.67" length="9.41" shape="633.85,624.48 643.22,625.29"/>
    </edge>
    <edge id=":10094610149_0" function="internal">
        <lane id=":10094610149_0_0" index="0" allow="delivery" speed="5.13" length="4.91" shape="438.33,613.80 438.72,612.53 439.43,611.65 440.45,611.18 441.78,611.11"/>
    </edge>
    <edge id=":10094610149_1" function="internal">
        <lane id=":10094610149_1_0" index="0" allow="pedestrian delivery bicycle" speed="3.65" length="4.67" shape="438.33,613.80 437.73,612.49 437.00,611.97 436.15,612.24 435.17,613.29"/>
    </edge>
    <edge id=":10094610149_2" function="internal">
        <lane id=":10094610149_2_0" index="0" allow="delivery" speed="5.30" length="6.01" shape="432.65,608.74 434.01,609.11 434.89,610.00 435.27,611.39 435.17,613.29"/>
    </edge>
    <edge id=":10094610149_3" function="internal">
        <lane id=":10094610149_3_0" index="0" disallow="pedestrian bicycle tram rail_urban rail rail_electric rail_fast ship" speed="16.67" length="9.49" shape="432.65,608.74 435.44,608.70 437.35,608.31 439.26,607.93 442.05,607.92"/>
    </edge>
    <edge id=":10094639277_0" function="internal">
        <lane id=":10094639277_0_0" index="0" allow="pedestrian delivery bicycle" speed="3.65" length="4.67" shape="1129.01,582.19 1128.17,581.02 1127.36,580.64 1126.57,581.07 1125.81,582.29"/>
    </edge>
    <edge id=":10094639281_0" function="internal">
        <lane id=":10094639281_0_0" index="0" disallow="tram rail_urban rail rail_electric rail_fast ship" speed="3.65" length="4.67" shape="840.80,704.79 839.55,705.51 839.09,706.28 839.44,707.11 840.58,707.99"/>
    </edge>
    <edge id=":10094639282_0" function="internal">
        <lane id=":10094639282_0_0" index="0" allow="pedestrian delivery bicycle" speed="5.02" length="5.02" shape="920.99,707.04 920.72,708.40 920.09,709.33 919.08,709.85 917.71,709.96"/>
    </edge>
    <edge id=":10094639282_1" function="internal">
        <lane id=":10094639282_1_0" index="0" allow="pedestrian delivery bicycle" speed="5.56" length="9.40" shape="920.99,707.04 920.50,716.43"/>
    </edge>
    <edge id=":10094639282_2" function="internal">
        <lane id=":10094639282_2_0" index="0" allow="pedestrian delivery bicycle" speed="3.65" length="4.67" shape="920.99,707.04 921.72,708.28 922.50,708.72 923.32,708.36 924.18,707.21"/>
    </edge>
    <edge id=":10094639282_3" function="internal">
        <lane id=":10094639282_3_0" index="0" allow="pedestrian delivery bicycle" speed="5.56" length="9.40" shape="923.70,716.59 924.18,707.21"/>
    </edge>
    <edge id=":10094639282_4" function="internal">
        <lane id=":10094639282_4_0" index="0" allow="pedestrian delivery bicycle" speed="6.90" length="10.16" shape="923.70,716.59 923.45,713.85 922.36,711.83 920.45,710.53 917.71,709.96"/>
    </edge>
    <edge id=":10094639282_5" function="internal">
        <lane id=":10094639282_5_0" index="0" allow="pedestrian delivery bicycle" speed="3.65" length="4.67" shape="923.70,716.59 922.96,715.36 922.18,714.92 921.37,715.27 920.50,716.43"/>
    </edge>
    <edge id=":10094639282_6" function="internal">
        <lane id=":10094639282_6_0" index="0" allow="pedestrian delivery bicycle" speed="5.09" length="5.06" shape="917.49,713.15 918.87,713.43 919.83,714.08 920.38,715.07 920.50,716.43"/>
    </edge>
    <edge id=":10094639282_7" function="internal">
        <lane id=":10094639282_7_0" index="0" allow="pedestrian delivery bicycle" speed="6.85" length="10.24" shape="917.49,713.15 920.30,712.94 922.35,711.88 923.64,709.97 924.18,707.21"/>
    </edge>
    <edge id=":10094639282_8" function="internal">
        <lane id=":10094639282_8_0" index="0" disallow="tram rail_urban rail rail_electric rail_fast ship" speed="3.65" length="4.67" shape="917.49,713.15 918.74,712.43 919.20,711.66 918.85,710.83 917.71,709.96"/>
    </edge>
    <edge id=":10294866076_0" function="internal">
        <lane id=":10294866076_0_0" index="0" allow="pedestrian delivery bicycle" speed="4.13" length="1.37" shape="1081.41,848.93 1081.09,849.07 1080.76,849.14 1080.43,849.12 1080.09,849.04"/>
    </edge>
    <edge id=":10294866076_1" function="internal">
        <lane id=":10294866076_1_0" index="0" allow="pedestrian delivery bicycle" speed="5.56" length="4.11" shape="1078.99,852.04 1080.01,852.30 1081.01,852.34 1082.00,852.15 1082.96,851.73"/>
    </edge>
    <edge id=":10294866080_0" function="internal">
        <lane id=":10294866080_0_0" index="0" allow="pedestrian delivery bicycle" speed="5.56" length="9.66" shape="1079.20,811.94 1078.89,814.72 1078.16,816.53 1077.04,818.23 1075.58,820.71"/>
    </edge>
    <edge id=":10294866080_1" function="internal">
        <lane id=":10294866080_1_0" index="0" allow="pedestrian delivery bicycle" speed="5.56" length="11.07" shape="1079.20,811.94 1079.39,815.03 1080.08,817.29 1081.19,819.46 1082.60,822.30"/>
    </edge>
    <edge id=":10294866080_2" function="internal">
        <lane id=":10294866080_2_0" index="0" allow="pedestrian delivery bicycle" speed="3.65" length="4.67" shape="1079.20,811.94 1079.97,813.17 1080.76,813.59 1081.57,813.21 1082.40,812.03"/>
    </edge>
    <edge id=":10294866080_3" function="internal">
        <lane id=":10294866080_3_0" index="0" allow="pedestrian delivery bicycle" speed="5.56" length="9.66" shape="1085.52,821.00 1084.20,818.44 1083.19,816.67 1082.56,814.83 1082.40,812.03"/>
    </edge>
    <edge id=":10294866080_4" function="internal">
        <lane id=":10294866080_4_0" index="0" allow="pedestrian delivery bicycle" speed="5.56" length="14.81" shape="1085.52,821.00 1083.15,817.06 1080.70,815.70 1078.17,816.91 1075.58,820.71"/>
    </edge>
    <edge id=":10294866080_5" function="internal">
        <lane id=":10294866080_5_0" index="0" allow="pedestrian delivery bicycle" speed="3.65" length="4.67" shape="1085.52,821.00 1084.30,820.23 1083.41,820.19 1082.84,820.88 1082.60,822.30"/>
    </edge>
    <edge id=":10294866080_6" function="internal">
        <lane id=":10294866080_6_0" index="0" allow="pedestrian delivery bicycle" speed="4.66" length="6.23" shape="1078.42,822.18 1079.51,820.59 1080.57,820.07 1081.60,820.65 1082.60,822.30"/>
    </edge>
    <edge id=":10294866080_7" function="internal">
        <lane id=":10294866080_7_0" index="0" allow="pedestrian delivery bicycle" speed="5.56" length="11.07" shape="1078.42,822.18 1079.99,819.43 1081.22,817.32 1082.04,815.10 1082.40,812.03"/>
    </edge>
    <edge id=":10294866080_8" function="internal">
        <lane id=":10294866080_8_0" index="0" allow="pedestrian delivery bicycle" speed="3.65" length="4.67" shape="1078.42,822.18 1078.26,820.75 1077.73,820.03 1076.84,820.01 1075.58,820.71"/>
    </edge>
    <edge id=":10294866083_0" function="internal">
        <lane id=":10294866083_0_0" index="0" allow="delivery" speed="5.07" length="5.01" shape="1162.51,660.80 1162.72,659.44 1163.31,658.47 1164.28,657.89 1165.63,657.70"/>
    </edge>
    <edge id=":10294866083_1" function="internal">
        <lane id=":10294866083_1_0" index="0" allow="pedestrian delivery bicycle" speed="3.65" length="4.67" shape="1162.51,660.80 1161.73,659.59 1160.93,659.18 1160.13,659.56 1159.31,660.75"/>
    </edge>
    <edge id=":10294866083_2" function="internal">
        <lane id=":10294866083_2_0" index="0" allow="delivery" speed="5.04" length="4.99" shape="1156.26,657.60 1157.61,657.82 1158.57,658.42 1159.13,659.39 1159.31,660.75"/>
    </edge>
    <edge id=":10294866083_3" function="internal">
        <lane id=":10294866083_3_0" index="0" disallow="pedestrian bicycle tram rail_urban rail rail_electric rail_fast ship" speed="16.67" length="9.35" shape="1156.26,657.60 1165.63,657.70"/>
        <lane id=":10294866083_3_1" index="1" disallow="pedestrian bicycle tram rail_urban rail rail_electric rail_fast ship" speed="16.67" length="9.35" shape="1156.32,654.40 1165.64,654.50"/>
    </edge>
    <edge id=":3633144514_0" function="internal">
        <lane id=":3633144514_0_0" index="0" allow="pedestrian delivery bicycle" speed="5.56" length="5.16" shape="416.57,700.20 411.46,699.52"/>
    </edge>
    <edge id=":3633144514_1" function="internal">
        <lane id=":3633144514_1_0" index="0" allow="pedestrian delivery bicycle" speed="3.65" length="1.44" shape="416.57,700.20 415.27,700.82"/>
    </edge>
    <edge id=":3633144514_4" function="internal">
        <lane id=":3633144514_4_0" index="0" allow="pedestrian delivery bicycle" speed="3.65" length="3.23" shape="415.27,700.82 414.75,701.55 415.03,702.40 416.10,703.37"/>
    </edge>
    <edge id=":3633144514_2" function="internal">
        <lane id=":3633144514_2_0" index="0" allow="pedestrian delivery bicycle" speed="5.56" length="5.07" shape="411.07,702.70 416.10,703.37"/>
    </edge>
    <edge id=":3633144514_3" function="internal">
        <lane id=":3633144514_3_0" index="0" allow="pedestrian delivery bicycle" speed="3.65" length="1.44" shape="411.07,702.70 412.36,702.05"/>
    </edge>
    <edge id=":3633144514_5" function="internal">
        <lane id=":3633144514_5_0" index="0" allow="pedestrian delivery bicycle" speed="3.65" length="3.23" shape="412.36,702.05 412.85,701.30 412.55,700.46 411.46,699.52"/>
    </edge>
    <edge id=":4005080531_0" function="internal">
        <lane id=":4005080531_0_0" index="0" allow="pedestrian delivery bicycle" speed="5.56" length="4.05" shape="441.26,555.34 441.48,554.15 441.75,553.31 441.84,552.50 441.49,551.42"/>
    </edge>
    <edge id=":4005080531_1" function="internal">
        <lane id=":4005080531_1_0" index="0" allow="pedestrian delivery bicycle" speed="3.65" length="1.14" shape="441.26,555.34 440.69,554.35"/>
    </edge>
    <edge id=":4005080531_4" function="internal">
        <lane id=":4005080531_4_0" index="0" allow="pedestrian delivery bicycle" speed="3.65" length="3.53" shape="440.69,554.35 440.54,554.09 439.77,553.64 438.95,553.98 438.07,555.12"/>
    </edge>
    <edge id=":4005080531_2" function="internal">
        <lane id=":4005080531_2_0" index="0" allow="pedestrian delivery bicycle" speed="5.56" length="2.47" shape="438.62,552.83 438.77,553.47 438.57,553.93 438.26,554.42 438.07,555.12"/>
    </edge>
    <edge id=":4005080531_3" function="internal">
        <lane id=":4005080531_3_0" index="0" allow="pedestrian delivery bicycle" speed="3.65" length="1.30" shape="438.62,552.83 439.75,553.48"/>
    </edge>
    <edge id=":4005080531_5" function="internal">
        <lane id=":4005080531_5_0" index="0" allow="pedestrian delivery bicycle" speed="3.65" length="3.37" shape="439.75,553.48 439.87,553.55 440.76,553.56 441.31,552.85 441.49,551.42"/>
    </edge>
    <edge id=":4005080533_0" function="internal">
        <lane id=":4005080533_0_0" index="0" allow="pedestrian delivery bicycle" speed="3.65" length="4.67" shape="378.55,572.74 377.32,573.49 376.88,574.27 377.24,575.08 378.41,575.94"/>
    </edge>
    <edge id=":4079894622_0" function="internal">
        <lane id=":4079894622_0_0" index="0" allow="pedestrian delivery bicycle" speed="3.65" length="4.67" shape="566.06,1132.08 566.83,1133.30 567.62,1133.72 568.43,1133.34 569.26,1132.16"/>
    </edge>
    <edge id=":426962442_0" function="internal">
        <lane id=":426962442_0_0" index="0" disallow="tram rail_urban rail rail_electric rail_fast ship" speed="3.65" length="4.67" shape="1107.70,-0.04 1106.87,-1.22 1106.06,-1.60 1105.27,-1.18 1104.50,0.04"/>
    </edge>
    <edge id=":431534081_0" function="internal">
        <lane id=":431534081_0_0" index="0" allow="pedestrian delivery bicycle" speed="3.65" length="4.67" shape="877.76,1346.92 878.48,1348.17 879.25,1348.63 880.08,1348.28 880.96,1347.14"/>
    </edge>
    <edge id=":431534133_0" function="internal">
        <lane id=":431534133_0_0" index="0" allow="pedestrian delivery bicycle" speed="5.19" length="5.21" shape="917.38,777.67 917.10,778.99 916.42,779.93 915.34,780.49 913.87,780.66"/>
    </edge>
    <edge id=":431534133_1" function="internal">
        <lane id=":431534133_1_0" index="0" allow="pedestrian delivery bicycle" speed="5.56" length="9.44" shape="917.38,777.67 916.80,787.09"/>
    </edge>
    <edge id=":431534133_2" function="internal">
        <lane id=":431534133_2_0" index="0" allow="pedestrian delivery bicycle" speed="3.65" length="4.67" shape="917.38,777.67 918.11,778.91 918.89,779.35 919.71,778.99 920.57,777.83"/>
    </edge>
    <edge id=":431534133_3" function="internal">
        <lane id=":431534133_3_0" index="0" allow="pedestrian delivery bicycle" speed="5.56" length="9.50" shape="919.99,787.31 920.57,777.83"/>
    </edge>
    <edge id=":431534133_4" function="internal">
        <lane id=":431534133_4_0" index="0" allow="pedestrian delivery bicycle" speed="5.56" length="10.45" shape="919.99,787.31 919.78,784.43 918.69,782.36 916.72,781.11 913.87,780.66"/>
    </edge>
    <edge id=":431534133_5" function="internal">
        <lane id=":431534133_5_0" index="0" allow="pedestrian delivery bicycle" speed="3.65" length="4.67" shape="919.99,787.31 919.28,786.06 918.51,785.60 917.68,785.95 916.80,787.09"/>
    </edge>
    <edge id=":431534133_6" function="internal">
        <lane id=":431534133_6_0" index="0" allow="pedestrian delivery bicycle" speed="4.98" length="5.07" shape="913.83,783.86 915.21,784.08 916.17,784.69 916.70,785.69 916.80,787.09"/>
    </edge>
    <edge id=":431534133_7" function="internal">
        <lane id=":431534133_7_0" index="0" allow="pedestrian delivery bicycle" speed="5.56" length="10.23" shape="913.83,783.86 916.66,783.51 918.73,782.39 920.03,780.50 920.57,777.83"/>
    </edge>
    <edge id=":431534133_8" function="internal">
        <lane id=":431534133_8_0" index="0" allow="pedestrian delivery bicycle" speed="3.65" length="4.67" shape="913.83,783.86 915.04,783.08 915.45,782.28 915.06,781.48 913.87,780.66"/>
    </edge>
    <edge id=":431534134_0" function="internal">
        <lane id=":431534134_0_0" index="0" allow="pedestrian delivery bicycle" speed="3.65" length="4.67" shape="771.93,778.97 770.72,779.76 770.31,780.55 770.70,781.36 771.89,782.17"/>
    </edge>
    <edge id=":445327518_0" function="internal">
        <lane id=":445327518_0_0" index="0" allow="pedestrian delivery bicycle" speed="5.56" length="0.31" shape="630.00,721.49 629.69,721.46"/>
    </edge>
    <edge id=":445327518_1" function="internal">
        <lane id=":445327518_1_0" index="0" allow="pedestrian delivery bicycle" speed="5.56" length="0.27" shape="629.46,724.66 629.73,724.68"/>
    </edge>
    <edge id=":445327520_0" function="internal">
        <lane id=":445327520_0_0" index="0" allow="pedestrian delivery bicycle" speed="4.85" length="4.75" shape="635.69,635.89 635.33,636.79 634.56,637.34 633.37,637.53 631.75,637.37"/>
    </edge>
    <edge id=":445327520_1" function="internal">
        <lane id=":445327520_1_0" index="0" allow="pedestrian delivery bicycle" speed="5.56" length="10.69" shape="635.69,635.89 635.16,638.96 634.76,641.23 634.76,643.47 635.44,646.43"/>
    </edge>
    <edge id=":445327520_2" function="internal">
        <lane id=":445327520_2_0" index="0" allow="pedestrian delivery bicycle" speed="3.65" length="4.67" shape="635.69,635.89 636.32,637.19 637.06,637.69 637.91,637.40 638.86,636.31"/>
    </edge>
    <edge id=":445327520_3" function="internal">
        <lane id=":445327520_3_0" index="0" allow="pedestrian delivery bicycle" speed="5.56" length="9.32" shape="638.50,645.48 637.90,642.84 637.94,640.96 638.36,639.05 638.86,636.31"/>
    </edge>
    <edge id=":445327520_4" function="internal">
        <lane id=":445327520_4_0" index="0" allow="pedestrian delivery bicycle" speed="5.56" length="11.06" shape="638.50,645.48 637.23,642.24 635.68,639.81 633.86,638.19 631.75,637.37"/>
    </edge>
    <edge id=":445327520_5" function="internal">
        <lane id=":445327520_5_0" index="0" allow="pedestrian delivery bicycle" speed="3.65" length="4.67" shape="638.50,645.48 637.38,644.57 636.50,644.43 635.85,645.05 635.44,646.43"/>
    </edge>
    <edge id=":445327520_6" function="internal">