<?xml version="1.0" encoding="UTF-8"?>

<!-- generated on 2023-04-09 21:04:15 by Eclipse SUMO netedit Version 1.16.0
<configuration xmlns:xsi="http://www.w3.org/2001/XMLSchema-instance" xsi:noNamespaceSchemaLocation="http://sumo.dlr.de/xsd/netconvertConfiguration.xsd">

    <input>
        <sumo-net-file value="D:\SEM 8\Project\Folder 3\NetworkFile.net.xml"/>
    </input>

    <output>
        <output-file value="D:\SEM 8\Project\Folder 3\NetworkFile.net.xml"/>
        <output.street-names value="true"/>
    </output>

    <processing>
        <geometry.min-radius.fix.railways value="false"/>
        <geometry.max-grade.fix value="false"/>
        <offset.disable-normalization value="true"/>
        <lefthand value="1"/>
    </processing>

    <junctions>
        <no-turnarounds value="true"/>
        <junctions.corner-detail value="5"/>
        <junctions.limit-turn-speed value="5.50"/>
        <rectangular-lane-cut value="0"/>
    </junctions>

    <pedestrian>
        <walkingareas value="0"/>
    </pedestrian>

</configuration>
-->

<net version="1.16" junctionCornerDetail="5" lefthand="true" limitTurnSpeed="5.50" xmlns:xsi="http://www.w3.org/2001/XMLSchema-instance" xsi:noNamespaceSchemaLocation="http://sumo.dlr.de/xsd/net_file.xsd">

    <location netOffset="-778318.41,-1439537.22" convBoundary="0.00,0.00,1925.19,1347.03" origBoundary="77.560722,13.008923,77.583796,13.043934" projParameter="+proj=utm +zone=43 +ellps=WGS84 +datum=WGS84 +units=m +no_defs"/>

    <type id="highway.bridleway" priority="1" numLanes="1" speed="2.78" allow="pedestrian" oneway="1" width="2.00"/>
    <type id="highway.bus_guideway" priority="1" numLanes="1" speed="27.78" allow="bus" oneway="1"/>
    <type id="highway.cycleway" priority="1" numLanes="1" speed="5.56" allow="bicycle" oneway="0" width="1.00"/>
    <type id="highway.footway" priority="1" numLanes="1" speed="2.78" allow="pedestrian" oneway="1" width="2.00"/>
    <type id="highway.ford" priority="1" numLanes="1" speed="2.78" allow="army" oneway="0"/>
    <type id="highway.living_street" priority="2" numLanes="1" speed="2.78" disallow="tram rail_urban rail rail_electric rail_fast ship" oneway="0"/>
    <type id="highway.motorway" priority="14" numLanes="2" speed="39.44" allow="private emergency authority army vip passenger hov taxi bus coach delivery truck trailer motorcycle evehicle custom1 custom2" oneway="1"/>
    <type id="highway.motorway_link" priority="9" numLanes="1" speed="22.22" allow="private emergency authority army vip passenger hov taxi bus coach delivery truck trailer motorcycle evehicle custom1 custom2" oneway="1"/>
    <type id="highway.path" priority="1" numLanes="1" speed="5.56" allow="pedestrian bicycle" oneway="0" width="2.00"/>
    <type id="highway.pedestrian" priority="1" numLanes="1" speed="2.78" allow="pedestrian" oneway="1" width="2.00"/>
    <type id="highway.primary" priority="12" numLanes="2" speed="27.78" disallow="tram rail_urban rail rail_electric rail_fast ship" oneway="0"/>
    <type id="highway.primary_link" priority="7" numLanes="1" speed="22.22" disallow="tram rail_urban rail rail_electric rail_fast ship" oneway="0"/>
    <type id="highway.raceway" priority="15" numLanes="2" speed="83.33" allow="vip" oneway="0"/>
    <type id="highway.residential" priority="3" numLanes="1" speed="13.89" disallow="tram rail_urban rail rail_electric rail_fast ship" oneway="0"/>
    <type id="highway.secondary" priority="11" numLanes="1" speed="27.78" disallow="tram rail_urban rail rail_electric rail_fast ship" oneway="0"/>
    <type id="highway.secondary_link" priority="6" numLanes="1" speed="22.22" disallow="tram rail_urban rail rail_electric rail_fast ship" oneway="0"/>
    <type id="highway.service" priority="1" numLanes="1" speed="5.56" allow="pedestrian delivery bicycle" oneway="0"/>
    <type id="highway.stairs" priority="1" numLanes="1" speed="1.39" allow="pedestrian" oneway="1" width="2.00"/>
    <type id="highway.step" priority="1" numLanes="1" speed="1.39" allow="pedestrian" oneway="1" width="2.00"/>
    <type id="highway.steps" priority="1" numLanes="1" speed="1.39" allow="pedestrian" oneway="1" width="2.00"/>
    <type id="highway.tertiary" priority="10" numLanes="1" speed="22.22" disallow="tram rail_urban rail rail_electric rail_fast ship" oneway="0"/>
    <type id="highway.tertiary_link" priority="5" numLanes="1" speed="22.22" disallow="tram rail_urban rail rail_electric rail_fast ship" oneway="0"/>
    <type id="highway.track" priority="1" numLanes="1" speed="5.56" allow="pedestrian motorcycle moped bicycle" oneway="0"/>
    <type id="highway.trunk" priority="13" numLanes="2" speed="27.78" disallow="pedestrian bicycle tram rail_urban rail rail_electric rail_fast ship" oneway="0"/>
    <type id="highway.trunk_link" priority="8" numLanes="1" speed="22.22" disallow="pedestrian bicycle tram rail_urban rail rail_electric rail_fast ship" oneway="0"/>
    <type id="highway.unclassified" priority="4" numLanes="1" speed="13.89" disallow="tram rail_urban rail rail_electric rail_fast ship" oneway="0"/>
    <type id="highway.unsurfaced" priority="1" numLanes="1" speed="8.33" disallow="tram rail_urban rail rail_electric rail_fast ship" oneway="0"/>
    <type id="railway.highspeed" priority="21" numLanes="1" speed="69.44" allow="rail_fast" oneway="1"/>
    <type id="railway.light_rail" priority="19" numLanes="1" speed="27.78" allow="rail_urban" oneway="1"/>
    <type id="railway.preserved" priority="16" numLanes="1" speed="27.78" allow="rail" oneway="1"/>
    <type id="railway.rail" priority="20" numLanes="1" speed="44.44" allow="rail" oneway="1"/>
    <type id="railway.subway" priority="18" numLanes="1" speed="27.78" allow="rail_urban" oneway="1"/>
    <type id="railway.tram" priority="17" numLanes="1" speed="13.89" allow="tram" oneway="1"/>

    <edge id=":10094610148_0" function="internal">
        <lane id=":10094610148_0_0" index="0" disallow="pedestrian bicycle tram rail_urban rail rail_electric rail_fast ship" speed="16.67" length="0.10" shape="638.40,628.08 638.40,628.08"/>
        <lane id=":10094610148_0_1" index="1" disallow="pedestrian bicycle tram rail_urban rail rail_electric rail_fast ship" speed="16.67" length="0.10" shape="638.68,624.90 638.68,624.90"/>
    </edge>
    <edge id=":5851035925_0" function="internal">
        <lane id=":5851035925_0_0" index="0" allow="pedestrian bicycle" speed="2.89" length="2.92" width="2.00" shape="467.04,551.00 466.55,550.24 466.06,549.98 465.55,550.22 465.04,550.96"/>
    </edge>
    <edge id=":5851035926_0" function="internal">
        <lane id=":5851035926_0_0" index="0" allow="pedestrian bicycle" speed="2.89" length="2.92" width="2.00" shape="465.02,551.88 465.51,552.64 466.01,552.90 466.51,552.66 467.02,551.92"/>
    </edge>
    <edge id=":663920335_0" function="internal">
        <lane id=":663920335_0_0" index="0" disallow="pedestrian bicycle tram rail_urban rail rail_electric rail_fast ship" speed="16.67" length="0.10" shape="712.95,622.59 712.95,622.59"/>
        <lane id=":663920335_0_1" index="1" disallow="pedestrian bicycle tram rail_urban rail rail_electric rail_fast ship" speed="16.67" length="0.10" shape="712.71,625.79 712.71,625.79"/>
    </edge>
    <edge id=":7257695661_0" function="internal">
        <lane id=":7257695661_0_0" index="0" disallow="pedestrian bicycle tram rail_urban rail rail_electric rail_fast ship" speed="16.67" length="0.30" shape="681.68,620.32 681.38,620.29"/>
        <lane id=":7257695661_0_1" index="1" disallow="pedestrian bicycle tram rail_urban rail rail_electric rail_fast ship" speed="16.67" length="0.30" shape="681.44,623.51 681.14,623.48"/>
    </edge>
    <edge id=":9583428975_0" function="internal">
        <lane id=":9583428975_0_0" index="0" disallow="pedestrian bicycle tram rail_urban rail rail_electric rail_fast ship" speed="16.67" length="0.10" shape="925.40,648.78 925.40,648.78"/>
        <lane id=":9583428975_0_1" index="1" disallow="pedestrian bicycle tram rail_urban rail rail_electric rail_fast ship" speed="16.67" length="0.10" shape="925.60,645.58 925.60,645.58"/>
    </edge>
    <edge id=":9780937800_0" function="internal">
        <lane id=":9780937800_0_0" index="0" disallow="pedestrian bicycle tram rail_urban rail rail_electric rail_fast ship" speed="16.67" length="0.10" shape="630.84,616.61 630.84,616.61"/>
        <lane id=":9780937800_0_1" index="1" disallow="pedestrian bicycle tram rail_urban rail rail_electric rail_fast ship" speed="16.67" length="0.10" shape="630.60,619.81 630.60,619.81"/>
    </edge>
    <edge id=":cluster_10094610121_10094610128_10094610129_10094610130_#7more_0" function="internal">
        <lane id=":cluster_10094610121_10094610128_10094610129_10094610130_#7more_0_0" index="0" disallow="pedestrian bicycle tram rail_urban rail rail_electric rail_fast ship" speed="16.67" length="24.15" shape="760.18,624.59 736.05,624.31"/>
        <lane id=":cluster_10094610121_10094610128_10094610129_10094610130_#7more_0_1" index="1" disallow="pedestrian bicycle tram rail_urban rail rail_electric rail_fast ship" speed="16.67" length="24.15" shape="759.99,627.78 735.82,627.50"/>
    </edge>
    <edge id=":cluster_10094610121_10094610128_10094610129_10094610130_#7more_2" function="internal">
        <lane id=":cluster_10094610121_10094610128_10094610129_10094610130_#7more_2_0" index="0" disallow="pedestrian bicycle tram rail_urban rail rail_electric rail_fast ship" speed="10.10" length="23.42" shape="759.80,630.98 753.00,631.28 748.01,633.44 744.82,637.46 743.43,643.34"/>
    </edge>
    <edge id=":cluster_10094610121_10094610128_10094610129_10094610130_#7more_3" function="internal">
        <lane id=":cluster_10094610121_10094610128_10094610129_10094610130_#7more_3_0" index="0" disallow="pedestrian bicycle tram rail_urban rail rail_electric rail_fast ship" speed="4.20" length="6.86" shape="759.80,630.98 757.97,632.05 757.32,633.18 757.83,634.39 759.52,635.67"/>
    </edge>
    <edge id=":cluster_10094610121_10094610128_10094610129_10094610130_#7more_4" function="internal">
        <lane id=":cluster_10094610121_10094610128_10094610129_10094610130_#7more_4_0" index="0" disallow="pedestrian bicycle tram rail_urban rail rail_electric rail_fast ship" speed="6.51" length="8.96" shape="753.41,644.06 753.93,641.66 755.09,640.00 756.89,639.06 759.33,638.86"/>
        <lane id=":cluster_10094610121_10094610128_10094610129_10094610130_#7more_4_1" index="1" disallow="pedestrian bicycle tram rail_urban rail rail_electric rail_fast ship" speed="8.00" length="14.07" shape="750.22,643.83 751.03,640.06 752.86,637.45 755.68,635.99 759.52,635.67"/>
    </edge>
    <edge id=":cluster_10094610121_10094610128_10094610129_10094610130_#7more_6" function="internal">
        <lane id=":cluster_10094610121_10094610128_10094610129_10094610130_#7more_6_0" index="0" disallow="pedestrian bicycle tram rail_urban rail rail_electric rail_fast ship" speed="10.43" length="24.81" shape="750.22,643.83 749.73,637.12 747.16,632.16 742.52,628.96 735.82,627.50"/>
    </edge>
    <edge id=":cluster_10094610121_10094610128_10094610129_10094610130_#7more_7" function="internal">
        <lane id=":cluster_10094610121_10094610128_10094610129_10094610130_#7more_7_0" index="0" disallow="tram rail_urban rail rail_electric rail_fast ship" speed="4.84" length="9.94" shape="750.22,643.83 748.70,641.16 747.07,640.19 745.31,640.92 743.43,643.34"/>
    </edge>
    <edge id=":cluster_10094610121_10094610128_10094610129_10094610130_#7more_8" function="internal">
        <lane id=":cluster_10094610121_10094610128_10094610129_10094610130_#7more_8_0" index="0" disallow="pedestrian bicycle tram rail_urban rail rail_electric rail_fast ship" speed="6.70" length="9.53" shape="735.15,636.44 737.54,637.04 739.19,638.35 740.09,640.38 740.24,643.12"/>
    </edge>
    <edge id=":cluster_10094610121_10094610128_10094610129_10094610130_#7more_9" function="internal">
        <lane id=":cluster_10094610121_10094610128_10094610129_10094610130_#7more_9_0" index="0" disallow="pedestrian bicycle tram rail_urban rail rail_electric rail_fast ship" speed="16.67" length="24.28" shape="735.15,636.44 759.33,638.86"/>
        <lane id=":cluster_10094610121_10094610128_10094610129_10094610130_#7more_9_1" index="1" disallow="pedestrian bicycle tram rail_urban rail rail_electric rail_fast ship" speed="16.67" length="24.28" shape="735.39,633.25 759.52,635.67"/>
    </edge>
    <edge id=":cluster_10094610121_10094610128_10094610129_10094610130_#7more_11" function="internal">
        <lane id=":cluster_10094610121_10094610128_10094610129_10094610130_#7more_11_0" index="0" disallow="pedestrian bicycle tram rail_urban rail rail_electric rail_fast ship" speed="4.53" length="8.41" shape="735.39,633.25 737.65,631.97 738.48,630.59 737.87,629.10 735.82,627.50"/>
    </edge>
    <edge id=":cluster_295732932_7232196282_0" function="internal">
        <lane id=":cluster_295732932_7232196282_0_0" index="0" disallow="pedestrian bicycle tram rail_urban rail rail_electric rail_fast ship" speed="16.67" length="0.41" shape="961.28,639.57 961.01,639.55"/>
        <lane id=":cluster_295732932_7232196282_0_1" index="1" disallow="pedestrian bicycle tram rail_urban rail rail_electric rail_fast ship" speed="16.67" length="0.41" shape="961.19,642.77 960.79,642.75"/>
        <lane id=":cluster_295732932_7232196282_0_2" index="2" disallow="pedestrian bicycle tram rail_urban rail rail_electric rail_fast ship" speed="16.67" length="0.41" shape="961.10,645.96 960.57,645.94"/>
    </edge>
    <edge id=":cluster_461539214_7232196283_0" function="internal">
        <lane id=":cluster_461539214_7232196283_0_0" index="0" disallow="pedestrian bicycle tram rail_urban rail rail_electric rail_fast ship" speed="16.67" length="0.29" shape="844.36,631.46 844.10,631.44"/>
        <lane id=":cluster_461539214_7232196283_0_1" index="1" disallow="pedestrian bicycle tram rail_urban rail rail_electric rail_fast ship" speed="16.67" length="0.29" shape="844.14,634.65 843.84,634.63"/>
        <lane id=":cluster_461539214_7232196283_0_2" index="2" disallow="pedestrian bicycle tram rail_urban rail rail_electric rail_fast ship" speed="16.67" length="0.29" shape="843.91,637.84 843.58,637.82"/>
    </edge>

    <edge id="-749328319#0" from="5851035926" to="5851035925" priority="1" type="highway.path">
        <lane id="-749328319#0_0" index="0" allow="pedestrian bicycle" speed="5.56" length="0.92" width="2.00" shape="467.02,551.92 467.04,551.00">
            <param key="origId" value="749328319"/>
        </lane>
    </edge>
    <edge id="1110162265#1" from="10094610149" to="10094610148" name="Dr. CV Raman Road" priority="13" type="highway.trunk" spreadType="center">
        <lane id="1110162265#1_0" index="0" disallow="pedestrian bicycle tram rail_urban rail rail_electric rail_fast ship" speed="16.67" length="201.83" shape="437.32,610.72 638.40,628.08">
            <param key="origId" value="1110162265"/>
        </lane>
        <lane id="1110162265#1_1" index="1" disallow="pedestrian bicycle tram rail_urban rail rail_electric rail_fast ship" speed="16.67" length="201.83" shape="437.60,607.54 638.68,624.90">
            <param key="origId" value="1110162265"/>
        </lane>
        <param key="ref" value="NH48"/>
    </edge>
    <edge id="1110162265#2" from="10094610148" to="cluster_10094610121_10094610128_10094610129_10094610130_#7more" name="Dr. CV Raman Road" priority="13" type="highway.trunk" spreadType="center" shape="638.54,626.49 698.75,631.70 705.25,632.25 742.39,635.46">
        <lane id="1110162265#2_0" index="0" disallow="pedestrian bicycle tram rail_urban rail rail_electric rail_fast ship" speed="16.67" length="97.09" shape="638.40,628.08 698.61,633.29 705.11,633.84 735.15,636.44">
            <param key="origId" value="1110162265 1110162266 378597200"/>
        </lane>
        <lane id="1110162265#2_1" index="1" disallow="pedestrian bicycle tram rail_urban rail rail_electric rail_fast ship" speed="16.67" length="97.09" shape="638.68,624.90 698.89,630.11 705.39,630.66 735.39,633.25">
            <param key="origId" value="1110162265 1110162266 378597200"/>
        </lane>
        <param key="origTo" value="7257695672"/>
        <param key="ref" value="NH48"/>
    </edge>
    <edge id="1110162267#0" from="cluster_10094610121_10094610128_10094610129_10094610130_#7more" to="663920335" name="Dr. CV Raman Road" priority="13" type="highway.trunk" spreadType="center" shape="748.46,626.84 712.83,624.19">
        <lane id="1110162267#0_0" index="0" disallow="pedestrian bicycle tram rail_urban rail rail_electric rail_fast ship" speed="16.67" length="23.17" shape="736.05,624.31 712.95,622.59">
            <param key="origId" value="1110162267"/>
        </lane>
        <lane id="1110162267#0_1" index="1" disallow="pedestrian bicycle tram rail_urban rail rail_electric rail_fast ship" speed="16.67" length="23.17" shape="735.82,627.50 712.71,625.79">
            <param key="origId" value="1110162267"/>
        </lane>
        <param key="origFrom" value="295735476"/>
        <param key="ref" value="NH48"/>
    </edge>
    <edge id="1110162267#1" from="663920335" to="7257695661" name="Dr. CV Raman Road" priority="13" type="highway.trunk" spreadType="center" shape="712.83,624.19 705.68,623.66 699.16,623.20 681.41,621.90">
        <lane id="1110162267#1_0" index="0" disallow="pedestrian bicycle tram rail_urban rail rail_electric rail_fast ship" speed="16.67" length="31.35" shape="712.95,622.59 705.80,622.06 699.28,621.60 681.68,620.32">
            <param key="origId" value="1110162267 1110162268 458681912"/>
        </lane>
        <lane id="1110162267#1_1" index="1" disallow="pedestrian bicycle tram rail_urban rail rail_electric rail_fast ship" speed="16.67" length="31.35" shape="712.71,625.79 705.56,625.26 699.04,624.80 681.44,623.51">
            <param key="origId" value="1110162267 1110162268 458681912"/>
        </lane>
        <param key="ref" value="NH48"/>
    </edge>
    <edge id="171888545#2" from="cluster_461539040_7232196281" to="cluster_295732932_7232196282" name="Dr. CV Raman Road" priority="13" type="highway.trunk" spreadType="center" shape="1082.05,646.22 960.99,642.76">
        <lane id="171888545#2_0" index="0" disallow="pedestrian bicycle tram rail_urban rail rail_electric rail_fast ship" speed="16.67" length="121.05" shape="1082.29,643.03 961.28,639.57">
            <param key="origId" value="171888545"/>
        </lane>
        <lane id="171888545#2_1" index="1" disallow="pedestrian bicycle tram rail_urban rail rail_electric rail_fast ship" speed="16.67" length="121.05" shape="1082.20,646.22 961.19,642.77">
            <param key="origId" value="171888545"/>
        </lane>
        <lane id="171888545#2_2" index="2" disallow="pedestrian bicycle tram rail_urban rail rail_electric rail_fast ship" speed="16.67" length="121.05" shape="1082.11,649.42 961.10,645.96">
            <param key="origId" value="171888545"/>
        </lane>
        <param key="origFrom" value="461539040"/>
        <param key="origTo" value="295732932"/>
        <param key="ref" value="NH48"/>
    </edge>
    <edge id="171888545#3" from="cluster_295732932_7232196282" to="cluster_461539214_7232196283" name="Dr. CV Raman Road" priority="13" type="highway.trunk" spreadType="center" shape="960.99,642.76 843.99,634.64">
        <lane id="171888545#3_0" index="0" disallow="pedestrian bicycle tram rail_urban rail rail_electric rail_fast ship" speed="16.67" length="116.93" shape="961.01,639.55 844.36,631.46">
            <param key="origId" value="171888545"/>
        </lane>
        <lane id="171888545#3_1" index="1" disallow="pedestrian bicycle tram rail_urban rail rail_electric rail_fast ship" speed="16.67" length="116.93" shape="960.79,642.75 844.14,634.65">
            <param key="origId" value="171888545"/>
        </lane>
        <lane id="171888545#3_2" index="2" disallow="pedestrian bicycle tram rail_urban rail rail_electric rail_fast ship" speed="16.67" length="116.93" shape="960.57,645.94 843.91,637.84">
            <param key="origId" value="171888545"/>
        </lane>
        <param key="origFrom" value="295732932"/>
        <param key="origTo" value="461539214"/>
        <param key="ref" value="NH48"/>
    </edge>
    <edge id="171888545#4" from="cluster_461539214_7232196283" to="cluster_10094610121_10094610128_10094610129_10094610130_#7more" name="Dr. CV Raman Road" priority="13" type="highway.trunk" spreadType="center" shape="843.99,634.64 788.49,630.11">
        <lane id="171888545#4_0" index="0" disallow="pedestrian bicycle tram rail_urban rail rail_electric rail_fast ship" speed="16.67" length="84.13" shape="844.10,631.44 760.18,624.59">
            <param key="origId" value="171888545"/>
        </lane>
        <lane id="171888545#4_1" index="1" disallow="pedestrian bicycle tram rail_urban rail rail_electric rail_fast ship" speed="16.67" length="84.13" shape="843.84,634.63 759.99,627.78">
            <param key="origId" value="171888545"/>
        </lane>
        <lane id="171888545#4_2" index="2" disallow="pedestrian bicycle tram rail_urban rail rail_electric rail_fast ship" speed="16.67" length="84.13" shape="843.58,637.82 759.80,630.98">
            <param key="origId" value="171888545"/>
        </lane>
        <param key="origFrom" value="461539214"/>
        <param key="origTo" value="10094610131"/>
        <param key="ref" value="NH48"/>
    </edge>
    <edge id="327076501" from="3337886325" to="3337886324" priority="1" type="highway.footway" spreadType="center">
        <lane id="327076501_0" index="0" allow="pedestrian" speed="2.78" length="19.12" width="2.00" shape="1041.57,657.14 1042.23,638.03">
            <param key="origId" value="327076501"/>
        </lane>
    </edge>
    <edge id="358389560" from="3633144511" to="3633144514" priority="1" type="highway.footway" spreadType="center" shape="409.19,855.19 408.31,802.93 409.83,716.48 414.30,701.48">
        <lane id="358389560_0" index="0" allow="pedestrian" speed="2.78" length="154.38" width="2.00" shape="409.19,855.19 408.31,802.93 409.83,716.48 414.30,701.48">
            <param key="origId" value="358389560"/>
        </lane>
    </edge>
    <edge id="378597200#3" from="cluster_10094610121_10094610128_10094610129_10094610130_#7more" to="9583428975" name="Dr. CV Raman Road" priority="13" type="highway.trunk" spreadType="center" shape="756.63,637.10 925.50,647.18">
        <lane id="378597200#3_0" index="0" disallow="pedestrian bicycle tram rail_urban rail rail_electric rail_fast ship" speed="16.67" length="166.37" shape="759.33,638.86 925.40,648.78">
            <param key="origId" value="378597200"/>
        </lane>
        <lane id="378597200#3_1" index="1" disallow="pedestrian bicycle tram rail_urban rail rail_electric rail_fast ship" speed="16.67" length="166.37" shape="759.52,635.67 925.60,645.58">
            <param key="origId" value="378597200"/>
        </lane>
        <param key="origFrom" value="7232207792"/>
        <param key="ref" value="NH48"/>
    </edge>
    <edge id="378597200#4" from="9583428975" to="cluster_10155998962_9780937793" name="Dr. CV Raman Road" priority="13" type="highway.trunk" spreadType="center" shape="925.50,647.18 932.37,647.59 959.20,649.61 995.94,651.19 1069.27,654.30">
        <lane id="378597200#4_0" index="0" disallow="pedestrian bicycle tram rail_urban rail rail_electric rail_fast ship" speed="16.67" length="144.02" shape="925.40,648.78 932.26,649.19 959.11,651.21 995.87,652.79 1069.27,655.90">
            <param key="origId" value="378597200"/>
        </lane>
        <lane id="378597200#4_1" index="1" disallow="pedestrian bicycle tram rail_urban rail rail_electric rail_fast ship" speed="16.67" length="144.02" shape="925.60,645.58 932.48,645.99 959.29,648.01 996.01,649.59 1069.40,652.70">
            <param key="origId" value="378597200"/>
        </lane>
        <param key="origTo" value="9780937793"/>
        <param key="ref" value="NH48"/>
    </edge>
    <edge id="458681912#1" from="7257695661" to="9780937800" name="Dr. CV Raman Road" priority="13" type="highway.trunk" spreadType="center">
        <lane id="458681912#1_0" index="0" disallow="pedestrian bicycle tram rail_urban rail rail_electric rail_fast ship" speed="16.67" length="50.67" shape="681.38,620.29 630.84,616.61">
            <param key="origId" value="458681912"/>
        </lane>
        <lane id="458681912#1_1" index="1" disallow="pedestrian bicycle tram rail_urban rail rail_electric rail_fast ship" speed="16.67" length="50.67" shape="681.14,623.48 630.60,619.81">
            <param key="origId" value="458681912"/>
        </lane>
        <param key="ref" value="NH48"/>
    </edge>
    <edge id="458681912#2" from="9780937800" to="639527881" name="Dr. CV Raman Road" priority="13" type="highway.trunk" spreadType="center">
        <lane id="458681912#2_0" index="0" disallow="pedestrian bicycle tram rail_urban rail rail_electric rail_fast ship" speed="16.67" length="166.98" shape="630.84,616.61 464.30,604.48">
            <param key="origId" value="458681912"/>
        </lane>
        <lane id="458681912#2_1" index="1" disallow="pedestrian bicycle tram rail_urban rail rail_electric rail_fast ship" speed="16.67" length="166.98" shape="630.60,619.81 464.06,607.68">
            <param key="origId" value="458681912"/>
        </lane>
        <param key="ref" value="NH48"/>
    </edge>
    <edge id="619122978" from="5851035926" to="4005080531" priority="1" type="highway.footway" spreadType="center" shape="465.98,554.29 462.12,554.43 450.95,555.75 439.90,551.80">
        <lane id="619122978_0" index="0" allow="pedestrian" speed="2.78" length="23.40" width="2.00" shape="462.53,554.41 462.12,554.43 450.95,555.75 439.90,551.80">
            <param key="origId" value="619122978"/>
        </lane>
    </edge>
    <edge id="696959123" from="6545373731" to="6545373730" priority="1" type="highway.footway" spreadType="center">
        <lane id="696959123_0" index="0" allow="pedestrian" speed="2.78" length="2.57" width="2.00" shape="542.45,818.86 542.27,821.42">
            <param key="origId" value="696959123"/>
        </lane>
    </edge>
    <edge id="696959126" from="6545373729" to="6545373731" priority="1" type="highway.steps" spreadType="center">
        <lane id="696959126_0" index="0" allow="pedestrian" speed="1.39" length="19.78" width="2.00" shape="564.86,817.58 545.11,816.50">
            <param key="origId" value="696959126"/>
        </lane>
    </edge>
    <edge id="696959127" from="6545373732" to="6545373731" priority="1" type="highway.steps" spreadType="center">
        <lane id="696959127_0" index="0" allow="pedestrian" speed="1.39" length="23.84" width="2.00" shape="516.35,814.54 540.13,816.19">
            <param key="origId" value="696959127"/>
        </lane>
    </edge>
    <edge id="700172518" from="6575118633" to="6575118634" priority="1" type="highway.footway" spreadType="center">
        <lane id="700172518_0" index="0" allow="pedestrian" speed="2.78" length="2.16" width="2.00" shape="635.26,662.98 637.41,663.20">
            <param key="origId" value="700172518"/>
        </lane>
    </edge>
    <edge id="700172519" from="445565626" to="6575118633" priority="1" type="highway.steps" spreadType="center">
        <lane id="700172519_0" index="0" allow="pedestrian" speed="1.39" length="2.51" width="2.00" shape="632.47,662.69 634.96,662.95">
            <param key="origId" value="700172519"/>
        </lane>
    </edge>
    <edge id="749328319#0" from="5851035925" to="5851035926" priority="1" type="highway.path">
        <lane id="749328319#0_0" index="0" allow="pedestrian bicycle" speed="5.56" length="0.92" width="2.00" shape="465.04,550.96 465.02,551.88">
            <param key="origId" value="749328319"/>
        </lane>
    </edge>
    <edge id="775186847" from="7232207787" to="5301615707" priority="1" type="highway.footway" spreadType="center">
        <lane id="775186847_0" index="0" allow="pedestrian" speed="2.78" length="1.21" width="2.00" shape="1053.22,637.29 1053.22,638.50">
            <param key="origId" value="775186847"/>
        </lane>
    </edge>
    <edge id="777690253" from="cluster_10094610121_10094610128_10094610129_10094610130_#7more" to="7257695671" name="New BEL Road" priority="11" type="highway.secondary" spreadType="center" shape="742.39,635.46 740.71,659.03 730.59,799.61 723.69,894.04 711.24,1097.80">
        <lane id="777690253_0" index="0" disallow="tram rail_urban rail rail_electric rail_fast ship" speed="13.89" length="455.60" shape="740.24,643.12 739.11,658.92 728.99,799.49 722.09,893.93 709.64,1097.70">
            <param key="origId" value="777690253"/>
        </lane>
        <lane id="777690253_1" index="1" disallow="tram rail_urban rail rail_electric rail_fast ship" speed="13.89" length="455.60" shape="743.43,643.34 742.31,659.14 732.19,799.73 725.29,894.15 712.84,1097.90">
            <param key="origId" value="777690253"/>
        </lane>
        <param key="origFrom" value="7257695672"/>
    </edge>
    <edge id="777690254" from="10241527090" to="cluster_10094610121_10094610128_10094610129_10094610130_#7more" name="New BEL Road" priority="11" type="highway.secondary" spreadType="center" shape="718.56,1103.17 719.17,1097.86 733.25,902.14 733.74,895.40 750.69,659.74 752.36,636.32">
        <lane id="777690254_0" index="0" disallow="tram rail_urban rail rail_electric rail_fast ship" speed="13.89" length="460.44" shape="720.15,1103.35 720.76,1098.01 734.85,902.25 735.34,895.52 752.29,659.85 753.41,644.06">
            <param key="origId" value="777690254"/>
        </lane>